@<TRIPOS>MOLECULE
tmp/2ihqA00.pdb
 170 159 0 0 0
SMALL
GASTEIGER

@<TRIPOS>ATOM
      1  N         31.7420    0.0440   -3.5110 N.3    31  LEU31      -0.1245
      2  CA        31.8940   -0.2650   -2.0900 C.3    31  LEU31       0.1561
      3  C         33.0100    0.5460   -1.4330 C.2    31  LEU31       0.2260
      4  O         32.8670    1.0230   -0.3040 O.2    31  LEU31      -0.2867
      5  CB        32.0750   -1.7660   -1.8620 C.3    31  LEU31       0.0270
      6  CG        30.7930   -2.5200   -1.4730 C.3    31  LEU31       0.0019
      7  CD1       30.1620   -1.9240   -0.2140 C.3    31  LEU31       0.0001
      8  CD2       29.7920   -2.5090   -2.6330 C.3    31  LEU31       0.0001
      9  N         31.3300    3.7580   -0.8300 N.3    34  LEU34      -0.1231
     10  CA        30.3630    3.6990    0.2760 C.3    34  LEU34       0.1693
     11  C         31.1250    3.7270    1.6090 C.2    34  LEU34       0.2592
     12  O         30.7390    4.4290    2.5360 O.2    34  LEU34      -0.2718
     13  CB        29.4860    2.4420    0.1880 C.3    34  LEU34       0.0284
     14  CG        28.2780    2.4870   -0.7680 C.3    34  LEU34       0.0019
     15  CD1       27.6030    1.1290   -0.8970 C.3    34  LEU34       0.0001
     16  CD2       27.2590    3.5700   -0.3750 C.3    34  LEU34       0.0001
     17  N         32.2300    2.9830    1.6790 N.am   35  ASN35      -0.1974
     18  CA        33.0610    2.9330    2.8870 C.3    35  ASN35       0.1688
     19  C         33.5770    4.3250    3.2500 C.2    35  ASN35       0.2292
     20  O         33.4410    4.7740    4.3900 O.2    35  ASN35      -0.2864
     21  CB        34.2610    1.9960    2.6930 C.3    35  ASN35       0.1181
     22  CG        33.8810    0.5300    2.7380 C.2    35  ASN35       0.2629
     23  OD1       34.6990   -0.3390    2.4320 O.2    35  ASN35      -0.2716
     24  ND2       32.6540    0.2440    3.1490 N.am   35  ASN35      -0.0877
     25  N         32.4720    7.2110    2.2950 N.3    37  LEU37      -0.1231
     26  CA        31.3410    8.0540    2.6700 C.3    37  LEU37       0.1693
     27  C         30.8930    7.6780    4.0780 C.2    37  LEU37       0.2592
     28  O         30.5310    8.5370    4.8850 O.2    37  LEU37      -0.2718
     29  CB        30.1780    7.8540    1.6950 C.3    37  LEU37       0.0284
     30  CG        28.8720    8.5860    2.0180 C.3    37  LEU37       0.0019
     31  CD1       29.1160   10.0890    2.0430 C.3    37  LEU37       0.0001
     32  CD2       27.7910    8.2220    1.0090 C.3    37  LEU37       0.0001
     33  N         30.9110    6.3810    4.3710 N.am   38  GLY38      -0.1957
     34  CA        30.5130    5.9020    5.6800 C.3    38  GLY38       0.1869
     35  C         31.3650    6.5750    6.7390 C.2    38  GLY38       0.2309
     36  O         30.8560    7.0670    7.7520 O.2    38  GLY38      -0.2863
     37  N         30.5070   10.2920    7.0610 N.3    41  GLN41      -0.1245
     38  CA        29.2500   10.4030    7.8010 C.3    41  GLN41       0.1566
     39  C         29.4360   10.1580    9.3000 C.2    41  GLN41       0.2260
     40  O         28.7650   10.7820   10.1200 O.2    41  GLN41      -0.2867
     41  CB        28.2000    9.4290    7.2420 C.3    41  GLN41       0.0367
     42  CG        27.5810    9.8740    5.9140 C.3    41  GLN41       0.0905
     43  CD        26.6600   11.0650    6.0900 C.2    41  GLN41       0.2608
     44  OE1       25.9460   11.4720    5.1710 O.2    41  GLN41      -0.2717
     45  NE2       26.6650   11.6230    7.2830 N.am   41  GLN41      -0.0878
     46  N         25.1310    4.1810   14.7220 N.3    71  TRP71      -0.1227
     47  CA        25.6240    4.8190   13.5180 C.3    71  TRP71       0.1737
     48  C         25.0460    4.3180   12.1950 C.2    71  TRP71       0.2595
     49  O         24.5060    5.0980   11.4070 O.2    71  TRP71      -0.2718
     50  CB        27.1530    4.9270   13.5580 C.3    71  TRP71       0.0564
     51  CG        27.9290    4.0340   12.6660 C.ar   71  TRP71       0.0003
     52  CD1       28.2790    2.7280   12.9060 C.ar   71  TRP71       0.0946
     53  CD2       28.6690    4.4340   11.5170 C.ar   71  TRP71       0.0152
     54  NE1       29.1240    2.2710   11.9200 N.ar   71  TRP71      -0.2442
     55  CE2       29.3840    3.3040   11.0590 C.ar   71  TRP71       0.0810
     56  CE3       28.7610    5.6240   10.8000 C.ar   71  TRP71       0.0012
     57  CZ2       30.1730    3.3360    9.9190 C.ar   71  TRP71       0.0191
     58  CZ3       29.5490    5.6560    9.6860 C.ar   71  TRP71       0.0001
     59  CH2       30.2410    4.5170    9.2440 C.ar   71  TRP71       0.0015
     60  N         25.0760    3.0100   11.9870 N.am   72  MET72      -0.1979
     61  CA        24.5130    2.4310   10.7750 C.3    72  MET72       0.1605
     62  C         23.0530    2.8370   10.5510 C.2    72  MET72       0.2287
     63  O         22.6950    3.2770    9.4640 O.2    72  MET72      -0.2864
     64  CB        24.6590    0.9060   10.7950 C.3    72  MET72       0.0413
     65  CG        24.3390    0.2200    9.4610 C.3    72  MET72       0.0598
     66  SD        25.2910    0.8650    8.0860 S.3    72  MET72      -0.1393
     67  CE        26.9040    0.0920    8.4060 C.3    72  MET72       0.0692
     68  N         22.5080    6.4530    9.6690 N.3    75  MET75      -0.1230
     69  CA        22.8270    6.6790    8.2610 C.3    75  MET75       0.1702
     70  C         21.6820    6.1800    7.3790 C.2    75  MET75       0.2592
     71  O         21.3190    6.8190    6.3940 O.2    75  MET75      -0.2718
     72  CB        24.1280    5.9730    7.8680 C.3    75  MET75       0.0401
     73  CG        25.3930    6.6470    8.4000 C.3    75  MET75       0.0596
     74  SD        26.8880    6.0490    7.5870 S.3    75  MET75      -0.1393
     75  CE        26.5890    4.2870    7.6340 C.3    75  MET75       0.0692
     76  N         21.1120    5.0420    7.7550 N.am   76  VAL76      -0.1980
     77  CA        20.0030    4.4620    7.0150 C.3    76  VAL76       0.1595
     78  C         18.8360    5.4410    6.9860 C.2    76  VAL76       0.2287
     79  O         18.2610    5.7170    5.9360 O.2    76  VAL76      -0.2864
     80  CB        19.5360    3.1410    7.6610 C.3    76  VAL76       0.0276
     81  CG1       18.1580    2.7630    7.1430 C.3    76  VAL76       0.0022
     82  CG2       20.5400    2.0240    7.4250 C.3    76  VAL76       0.0022
     83  N         19.6180    8.7780    5.1470 N.3    79  MET79      -0.1245
     84  CA        19.7240    8.5410    3.7060 C.3    79  MET79       0.1570
     85  C         18.3490    8.3250    3.0780 C.2    79  MET79       0.2261
     86  O         18.0920    8.7950    1.9700 O.2    79  MET79      -0.2867
     87  CB        20.6440    7.3660    3.3840 C.3    79  MET79       0.0387
     88  CG        20.9680    7.2450    1.8950 C.3    79  MET79       0.0595
     89  SD        19.8230    6.2140    0.9380 S.3    79  MET79      -0.1393
     90  CE        20.5110    4.5390    1.2820 C.3    79  MET79       0.0692
     91  N         16.8540   11.6650    2.6270 N.3    82  ARG82      -0.1245
     92  CA        17.5210   12.3730    1.5290 C.3    82  ARG82       0.1563
     93  C         16.9780   11.8690    0.1930 C.2    82  ARG82       0.2260
     94  O         16.8140   12.6370   -0.7620 O.2    82  ARG82      -0.2867
     95  CB        19.0330   12.1250    1.5710 C.3    82  ARG82       0.0307
     96  CG        19.7920   13.0170    2.5310 C.3    82  ARG82       0.0489
     97  CD        21.2850   13.0650    2.2070 C.3    82  ARG82       0.2205
     98  NE        21.9030   11.7420    2.1150 N.pl3  82  ARG82      -0.0865
     99  CZ        22.3520   11.0400    3.1530 C.cat  82  ARG82       0.5346
    100  NH1       22.2460   11.5130    4.3850 N.pl3  82  ARG82       0.1354
    101  NH2       22.9120    9.8570    2.9590 N.pl3  82  ARG82       0.1354
    102  N         22.6460    8.4720   -1.5720 N.3    94  PHE94      -0.1241
    103  CA        23.6810    8.2890   -0.5500 C.3    94  PHE94       0.1605
    104  C         24.4620    9.5820   -0.3740 C.2    94  PHE94       0.2264
    105  O         24.8650    9.9470    0.7330 O.2    94  PHE94      -0.2867
    106  CB        24.6470    7.1730   -0.9660 C.3    94  PHE94       0.0534
    107  CG        24.1130    5.7860   -0.7360 C.ar   94  PHE94      -0.0203
    108  CD1       24.2050    5.1930    0.5120 C.ar   94  PHE94      -0.0042
    109  CD2       23.5370    5.0700   -1.7750 C.ar   94  PHE94      -0.0042
    110  CE1       23.7350    3.9130    0.7220 C.ar   94  PHE94      -0.0003
    111  CE2       23.0360    3.8020   -1.5610 C.ar   94  PHE94      -0.0003
    112  CZ        23.1490    3.2150   -0.3120 C.ar   94  PHE94      -0.0000
    113  N         24.2900   -5.4790   -2.8440 N.3   110  MET110     -0.1245
    114  CA        23.5500   -5.0570   -1.6580 C.3   110  MET110      0.1570
    115  C         22.0940   -4.8060   -2.0380 C.2   110  MET110      0.2261
    116  O         21.3770   -4.1030   -1.3210 O.2   110  MET110     -0.2867
    117  CB        24.1470   -3.7290   -1.1680 C.3   110  MET110      0.0387
    118  CG        24.5100   -3.6570    0.2930 C.3   110  MET110      0.0595
    119  SD        25.6020   -2.2380    0.5950 S.3   110  MET110     -0.1393
    120  CE        24.6660   -0.9150   -0.1410 C.3   110  MET110      0.0692
    121  N         15.7890   -0.2170    1.9540 N.3   117  MET117     -0.1245
    122  CA        16.0080    1.1910    2.2510 C.3   117  MET117      0.1570
    123  C         15.1580    2.0880    1.3610 C.2   117  MET117      0.2261
    124  O         14.6840    3.1350    1.8010 O.2   117  MET117     -0.2867
    125  CB        17.4850    1.5480    2.1430 C.3   117  MET117      0.0387
    126  CG        18.2810    1.0410    3.3180 C.3   117  MET117      0.0595
    127  SD        20.0110    1.4490    3.2040 S.3   117  MET117     -0.1393
    128  CE        20.0160    2.9390    4.0980 C.3   117  MET117      0.0692
    129  N         22.7010   -4.6180    7.1510 N.3   203  LEU203     -0.1245
    130  CA        23.8410   -3.8420    6.6860 C.3   203  LEU203      0.1561
    131  C         25.0670   -4.1700    7.5240 C.2   203  LEU203      0.2260
    132  O         26.1860   -4.2410    7.0150 O.2   203  LEU203     -0.2867
    133  CB        23.5260   -2.3400    6.7280 C.3   203  LEU203      0.0270
    134  CG        22.7980   -1.7660    5.5040 C.3   203  LEU203      0.0019
    135  CD1       22.1920   -0.4070    5.8130 C.3   203  LEU203      0.0001
    136  CD2       23.7290   -1.6690    4.3060 C.3   203  LEU203      0.0001
    137  N         26.3870   -7.5910    6.3800 N.3   206  PHE206     -0.1227
    138  CA        27.0220   -7.4330    5.0760 C.3   206  PHE206      0.1736
    139  C         28.3720   -6.7270    5.1700 C.2   206  PHE206      0.2596
    140  O         29.3520   -7.1560    4.5590 O.2   206  PHE206     -0.2718
    141  CB        26.0780   -6.6940    4.1230 C.3   206  PHE206      0.0547
    142  CG        26.7190   -6.2730    2.8210 C.ar  206  PHE206     -0.0202
    143  CD1       27.5140   -5.1410    2.7560 C.ar  206  PHE206     -0.0042
    144  CD2       26.4690   -6.9760    1.6500 C.ar  206  PHE206     -0.0042
    145  CE1       28.0750   -4.7310    1.5540 C.ar  206  PHE206     -0.0003
    146  CE2       27.0260   -6.5710    0.4370 C.ar  206  PHE206     -0.0003
    147  CZ        27.8360   -5.4540    0.3910 C.ar  206  PHE206     -0.0000
    148  N         28.4240   -5.6550    5.9560 N.am  207  THR207     -0.1953
    149  CA        29.6530   -4.8800    6.1270 C.3   207  THR207      0.1897
    150  C         30.7200   -5.6960    6.8490 C.2   207  THR207      0.2313
    151  O         31.9090   -5.6180    6.5280 O.2   207  THR207     -0.2863
    152  CB        29.3730   -3.5590    6.8800 C.3   207  THR207      0.1794
    153  OG1       28.3660   -2.8060    6.1840 O.3   207  THR207     -0.2208
    154  CG2       30.6600   -2.7300    7.0110 C.3   207  THR207      0.0378
    155  N         32.1170   -8.2500    4.5320 N.3   210  LEU210     -0.1245
    156  CA        32.9660   -7.5610    3.5720 C.3   210  LEU210      0.1561
    157  C         34.3270   -7.1750    4.1570 C.2   210  LEU210      0.2260
    158  O         35.3510   -7.2590    3.4750 O.2   210  LEU210     -0.2867
    159  CB        32.2490   -6.3290    3.0040 C.3   210  LEU210      0.0270
    160  CG        32.9750   -5.6520    1.8420 C.3   210  LEU210      0.0019
    161  CD1       33.3870   -6.6850    0.8010 C.3   210  LEU210      0.0001
    162  CD2       32.1340   -4.5440    1.2240 C.3   210  LEU210      0.0001
    163  N         36.3640    2.9920   10.4490 N.3   225  MET225     -0.1245
    164  CA        35.3710    2.0210   10.0020 C.3   225  MET225      0.1570
    165  C         35.7950    0.6050   10.3640 C.2   225  MET225      0.2261
    166  O         35.0500   -0.1280   11.0050 O.2   225  MET225     -0.2867
    167  CB        35.1880    2.1230    8.4840 C.3   225  MET225      0.0387
    168  CG        33.8510    2.6880    8.0430 C.3   225  MET225      0.0595
    169  SD        33.1560    1.6980    6.6980 S.3   225  MET225     -0.1393
    170  CE        31.5960    2.5450    6.4210 C.3   225  MET225      0.0692
@<TRIPOS>BOND
     1     1     2    1
     2   113   114    1
     3     8     6    1
     4     2     5    1
     5     2     3    1
     6   115   114    1
     7   115   116    2
     8     5     6    1
     9   109   111   ar
    10   109   107   ar
    11   114   117    1
    12   102   103    1
    13   111   112   ar
    14     6     7    1
    15     3     4    2
    16   117   118    1
    17   106   107    1
    18   106   103    1
    19    15    14    1
    20     9    10    1
    21    14    16    1
    22    14    13    1
    23    94    93    2
    24   107   108   ar
    25   103   104    1
    26   104   105    2
    27   112   110   ar
    28   120   119    1
    29    13    10    1
    30    93    92    1
    31    10    11    1
    32   118   119    1
    33   147   146   ar
    34   147   145   ar
    35   146   144   ar
    36   108   110   ar
    37   161   160    1
    38    89    90    1
    39    89    88    1
    40    32    30    1
    41   162   160    1
    42   123   124    2
    43   123   122    1
    44    92    95    1
    45    92    91    1
    46   145   143   ar
    47    95    96    1
    48    11    17   am
    49    11    12    2
    50   144   142   ar
    51    17    18    1
    52    29    30    1
    53    29    26    1
    54   160   159    1
    55    88    87    1
    56   121   122    1
    57    86    85    2
    58    30    31    1
    59    98    97    1
    60    98    99    2
    61   125   122    1
    62   125   126    1
    63    97    96    1
    64    25    26    1
    65    23    22    2
    66    26    27    1
    67    21    22    1
    68    21    18    1
    69    22    24   am
    70   143   142   ar
    71   142   141    1
    72    18    19    1
    73   101    99    1
    74   159   156    1
    75    85    84    1
    76    99   100    1
    77   127   126    1
    78   127   128    1
    79    19    20    2
    80    87    84    1
    81   158   157    2
    82   156   157    1
    83   156   155    1
    84    84    83    1
    85    27    33   am
    86    27    28    2
    87   141   138    1
    88   136   134    1
    89    33    34    1
    90   140   139    2
    91   138   139    1
    92   138   137    1
    93   139   148   am
    94    44    43    2
    95   134   135    1
    96   134   133    1
    97    34    35    1
    98    42    43    1
    99    42    41    1
   100    79    78    2
   101   148   149    1
   102    43    45   am
   103   149   150    1
   104   149   152    1
   105   153   152    1
   106    71    70    2
   107   170   169    1
   108   151   150    2
   109   130   133    1
   110   130   129    1
   111   130   131    1
   112   169   168    1
   113    35    36    2
   114   152   154    1
   115    78    77    1
   116    77    80    1
   117    77    76    1
   118   132   131    2
   119    37    38    1
   120    81    80    1
   121    41    38    1
   122    70    76   am
   123    70    69    1
   124    82    80    1
   125    74    75    1
   126    74    73    1
   127    38    39    1
   128    72    69    1
   129    72    73    1
   130   168   167    1
   131    66    67    1
   132    66    65    1
   133    69    68    1
   134   167   164    1
   135    59    58   ar
   136    59    57   ar
   137    39    40    2
   138    65    64    1
   139    63    62    2
   140    58    56   ar
   141    57    55   ar
   142   164   165    1
   143   164   163    1
   144   165   166    2
   145    62    61    1
   146    61    64    1
   147    61    60    1
   148    56    53   ar
   149    55    53   ar
   150    55    54   ar
   151    49    48    2
   152    53    51   ar
   153    54    52   ar
   154    60    48   am
   155    48    47    1
   156    51    52   ar
   157    51    50    1
   158    47    50    1
   159    47    46    1
