@<TRIPOS>MOLECULE
tmp/2ihuD00.pdb
 83 79 0 0 0
SMALL
GASTEIGER

@<TRIPOS>ATOM
      1  N         27.6320  105.4170   48.8880 N.3    23  VAL23      -0.1231
      2  CA        26.7900  106.4520   48.3280 C.3    23  VAL23       0.1692
      3  C         25.4170  105.8200   48.1550 C.2    23  VAL23       0.2592
      4  O         25.2980  104.7490   47.5520 O.2    23  VAL23      -0.2718
      5  CB        27.3260  106.9550   46.9570 C.3    23  VAL23       0.0266
      6  CG1       26.3980  107.9840   46.3740 C.3    23  VAL23       0.0020
      7  CG2       28.7160  107.5620   47.1040 C.3    23  VAL23       0.0020
      8  N         24.3880  106.4690   48.6940 N.am   24  VAL24      -0.1966
      9  CA        23.0240  105.9300   48.6520 C.3    24  VAL24       0.1727
     10  C         22.2380  106.5410   47.4970 C.2    24  VAL24       0.2617
     11  O         22.3320  107.7470   47.2420 O.2    24  VAL24      -0.2715
     12  CB        22.2760  106.1680   49.9960 C.3    24  VAL24       0.0290
     13  CG1       20.9510  105.4040   50.0390 C.3    24  VAL24       0.0023
     14  CG2       23.1490  105.7670   51.1740 C.3    24  VAL24       0.0023
     15  N         21.4560  105.7030   46.8110 N.am   25  GLY25      -0.1940
     16  CA        20.5940  106.1350   45.7210 C.3    25  GLY25       0.2014
     17  C         19.1320  106.1080   46.1070 C.2    25  GLY25       0.2638
     18  O         18.7830  106.3630   47.2610 O.2    25  GLY25      -0.2714
     19  N         18.2670  105.7930   45.1470 N.am   26  ARG26      -0.1977
     20  CA        16.8210  105.8080   45.3930 C.3    26  ARG26       0.1597
     21  C         16.3450  104.6910   46.3380 C.2    26  ARG26       0.2287
     22  O         15.2010  104.7060   46.8030 O.2    26  ARG26      -0.2864
     23  CB        16.0360  105.8040   44.0800 C.3    26  ARG26       0.0334
     24  CG        16.0490  104.4940   43.3180 C.3    26  ARG26       0.0492
     25  CD        15.0280  104.5530   42.2070 C.3    26  ARG26       0.2205
     26  NE        14.9500  103.3060   41.4550 N.pl3  26  ARG26      -0.0865
     27  CZ        14.0970  102.3190   41.7170 C.cat  26  ARG26       0.5346
     28  NH1       13.2430  102.4200   42.7320 N.pl3  26  ARG26       0.1354
     29  NH2       14.0990  101.2220   40.9640 N.pl3  26  ARG26       0.1354
     30  N         31.8610  105.9620   44.8750 N.3    47  GLU47      -0.1245
     31  CA        31.7780  104.6030   45.4390 C.3    47  GLU47       0.1567
     32  C         33.1200  103.8790   45.5370 C.2    47  GLU47       0.2260
     33  O         33.3130  103.0360   46.4180 O.2    47  GLU47      -0.2867
     34  CB        30.7860  103.7540   44.6370 C.3    47  GLU47       0.0388
     35  CG        29.3710  104.2280   44.7460 C.3    47  GLU47       0.1160
     36  CD        28.9720  105.2760   43.7040 C.2    47  GLU47       0.3649
     37  OE1       29.8420  105.8600   43.0180 O.co2  47  GLU47      -0.2457
     38  OE2       27.7570  105.5220   43.5760 O.co2  47  GLU47      -0.2457
     39  N         24.3400  102.2350   45.0190 N.3    70  THR70      -0.1218
     40  CA        23.0140  102.1240   44.4350 C.3    70  THR70       0.1862
     41  C         23.0100  101.1420   43.2610 C.2    70  THR70       0.2287
     42  O         24.0410  100.5250   42.9460 O.2    70  THR70      -0.2866
     43  CB        22.4480  103.5090   44.0220 C.3    70  THR70       0.1770
     44  OG1       21.0440  103.3890   43.7770 O.3    70  THR70      -0.2211
     45  CG2       23.1210  104.0330   42.7700 C.3    70  THR70       0.0375
     46  N         24.9390  102.0320   37.8180 N.3    73  PRO73      -0.2102
     47  CA        26.2440  102.6990   37.8640 C.3    73  PRO73       0.1504
     48  C         26.8130  102.8640   39.2810 C.2    73  PRO73       0.2576
     49  O         28.0170  103.0590   39.4400 O.2    73  PRO73      -0.2718
     50  CB        25.9630  104.0580   37.2160 C.3    73  PRO73       0.0282
     51  CG        24.5170  104.3140   37.5180 C.3    73  PRO73       0.0208
     52  CD        23.8600  102.9590   37.4190 C.3    73  PRO73       0.0893
     53  N         25.9670  102.7700   40.3020 N.am   74  GLY74      -0.1957
     54  CA        26.4620  102.7370   41.6790 C.3    74  GLY74       0.1869
     55  C         27.2960  101.4810   41.8770 C.2    74  GLY74       0.2309
     56  O         28.4440  101.5350   42.3470 O.2    74  GLY74      -0.2863
     57  N         30.5700  101.5190   39.7850 N.3    77  ASN77      -0.1240
     58  CA        31.5600  102.3650   40.4490 C.3    77  ASN77       0.1653
     59  C         32.1980  101.6650   41.6510 C.2    77  ASN77       0.2266
     60  O         33.4110  101.7030   41.8330 O.2    77  ASN77      -0.2867
     61  CB        30.9550  103.7180   40.8640 C.3    77  ASN77       0.1155
     62  CG        30.8990  104.7250   39.7100 C.2    77  ASN77       0.2627
     63  OD1       31.3900  104.4690   38.6150 O.2    77  ASN77      -0.2716
     64  ND2       30.2940  105.8770   39.9650 N.am   77  ASN77      -0.0877
     65  N         15.2970  100.8310   33.5260 N.3   110  HIS110     -0.1226
     66  CA        16.0650  101.9840   33.9900 C.3   110  HIS110      0.1752
     67  C         17.0160  101.6040   35.1200 C.2   110  HIS110      0.2595
     68  O         16.5880  101.0430   36.1380 O.2   110  HIS110     -0.2718
     69  CB        15.0880  103.0790   34.4550 C.3   110  HIS110      0.0759
     70  CG        15.7420  104.2280   35.1530 C.ar  110  HIS110      0.0818
     71  ND1       16.5830  105.1120   34.5090 N.ar  110  HIS110     -0.2268
     72  CD2       15.6630  104.6510   36.4370 C.ar  110  HIS110      0.1154
     73  CE1       17.0050  106.0210   35.3700 C.ar  110  HIS110      0.1986
     74  NE2       16.4580  105.7660   36.5460 N.ar  110  HIS110     -0.2212
     75  N         18.2980  101.9180   34.9270 N.am  111  GLN111     -0.1979
     76  CA        19.3870  101.6200   35.8810 C.3   111  GLN111      0.1601
     77  C         19.6360  100.1430   36.2070 C.2   111  GLN111      0.2287
     78  O         20.3850   99.8490   37.1250 O.2   111  GLN111     -0.2864
     79  CB        19.2240  102.4130   37.1960 C.3   111  GLN111      0.0394
     80  CG        19.5310  103.8860   37.0660 C.3   111  GLN111      0.0908
     81  CD        19.8040  104.5640   38.3900 C.2   111  GLN111      0.2608
     82  OE1       19.0960  104.3480   39.3710 O.2   111  GLN111     -0.2717
     83  NE2       20.8290  105.4090   38.4200 N.am  111  GLN111     -0.0878
@<TRIPOS>BOND
     1    65    66    1
     2    66    69    1
     3    66    67    1
     4    69    70    1
     5    71    70   ar
     6    71    73   ar
     7    75    67   am
     8    75    76    1
     9    67    68    2
    10    70    72   ar
    11    73    74   ar
    12    76    77    1
    13    76    79    1
    14    77    78    2
    15    72    74   ar
    16    80    79    1
    17    80    81    1
    18    50    51    1
    19    50    47    1
    20    52    51    1
    21    52    46    1
    22    46    47    1
    23    47    48    1
    24    81    83   am
    25    81    82    2
    26    63    62    2
    27    48    49    2
    28    48    53   am
    29    62    64   am
    30    62    61    1
    31    57    58    1
    32    53    54    1
    33    58    61    1
    34    58    59    1
    35    29    27    1
    36    26    27    2
    37    26    25    1
    38    59    60    2
    39    54    55    1
    40    27    28    1
    41    55    56    2
    42    25    24    1
    43    45    43    1
    44    42    41    2
    45    37    36   ar
    46    41    40    1
    47    24    23    1
    48    38    36   ar
    49    36    35    1
    50    44    43    1
    51    43    40    1
    52    23    20    1
    53    40    39    1
    54    34    35    1
    55    34    31    1
    56    30    31    1
    57    19    20    1
    58    19    17   am
    59    20    21    1
    60    31    32    1
    61    32    33    2
    62    16    17    1
    63    16    15    1
    64    17    18    2
    65    21    22    2
    66     6     5    1
    67    15    10   am
    68     5     7    1
    69     5     2    1
    70    11    10    2
    71    10     9    1
    72     4     3    2
    73     3     2    1
    74     3     8   am
    75     2     1    1
    76     9     8    1
    77     9    12    1
    78    12    13    1
    79    12    14    1
