@<TRIPOS>MOLECULE
tmp/2ihuB01.pdb
 146 142 0 0 0
SMALL
GASTEIGER

@<TRIPOS>ATOM
      1  N         26.6890   65.3830   32.0760 N.3    80  THR80      -0.1218
      2  CA        25.9010   64.6500   33.0790 C.3    80  THR80       0.1862
      3  C         26.7860   63.7900   33.9990 C.2    80  THR80       0.2287
      4  O         26.4800   63.6250   35.1910 O.2    80  THR80      -0.2866
      5  CB        24.8290   63.7950   32.4330 C.3    80  THR80       0.1770
      6  OG1       24.0770   64.6170   31.5360 O.3    80  THR80      -0.2211
      7  CG2       23.8940   63.1920   33.5030 C.3    80  THR80       0.0375
      8  N         18.7900   54.4070   40.0950 N.3   400  ILE400     -0.1231
      9  CA        17.9050   55.3870   40.7260 C.3   400  ILE400      0.1692
     10  C         16.4530   55.0090   40.4700 C.2   400  ILE400      0.2593
     11  O         16.0930   54.5930   39.3670 O.2   400  ILE400     -0.2718
     12  CB        18.2040   56.8430   40.2020 C.3   400  ILE400      0.0266
     13  CG1       19.7180   57.1610   40.2340 C.3   400  ILE400      0.0019
     14  CG2       17.3730   57.9170   40.9570 C.3   400  ILE400      0.0020
     15  CD1       20.4100   57.0080   41.5780 C.3   400  ILE400      0.0001
     16  N         15.6230   55.1470   41.5000 N.am  401  GLY401     -0.1942
     17  CA        14.2090   54.7720   41.4160 C.3   401  GLY401      0.2014
     18  C         13.6620   54.5010   42.8010 C.2   401  GLY401      0.2639
     19  O         14.3790   54.6430   43.7900 O.2   401  GLY401     -0.2714
     20  N         12.3870   54.1290   42.8800 N.am  402  PHE402     -0.1959
     21  CA        11.7770   53.7730   44.1590 C.3   402  PHE402      0.1771
     22  C         12.5400   52.6280   44.8360 C.2   402  PHE402      0.2619
     23  O         12.8190   52.6870   46.0390 O.2   402  PHE402     -0.2715
     24  CB        10.2890   53.4260   43.9840 C.3   402  PHE402      0.0574
     25  CG         9.5360   53.2740   45.2930 C.ar  402  PHE402     -0.0200
     26  CD1        9.7110   54.1900   46.3320 C.ar  402  PHE402     -0.0042
     27  CD2        8.6410   52.2140   45.4790 C.ar  402  PHE402     -0.0042
     28  CE1        9.0080   54.0570   47.5400 C.ar  402  PHE402     -0.0003
     29  CE2        7.9360   52.0680   46.6820 C.ar  402  PHE402     -0.0003
     30  CZ         8.1160   52.9940   47.7120 C.ar  402  PHE402     -0.0000
     31  N         12.8980   51.6120   44.0450 N.am  403  PHE403     -0.1974
     32  CA        13.7020   50.4660   44.4890 C.3   403  PHE403      0.1639
     33  C         15.0160   50.8450   45.1920 C.2   403  PHE403      0.2290
     34  O         15.5070   50.0910   46.0250 O.2   403  PHE403     -0.2864
     35  CB        14.0340   49.5570   43.2900 C.3   403  PHE403      0.0560
     36  CG        15.1110   50.1210   42.4000 C.ar  403  PHE403     -0.0200
     37  CD1       14.7900   50.9890   41.3650 C.ar  403  PHE403     -0.0042
     38  CD2       16.4480   49.8350   42.6360 C.ar  403  PHE403     -0.0042
     39  CE1       15.7730   51.5410   40.5790 C.ar  403  PHE403     -0.0003
     40  CE2       17.4420   50.3960   41.8430 C.ar  403  PHE403     -0.0003
     41  CZ        17.1020   51.2420   40.8170 C.ar  403  PHE403     -0.0000
     42  N         22.0450   61.7600   41.3520 N.3   426  SER426     -0.1202
     43  CA        20.9260   60.8270   41.1490 C.3   426  SER426      0.2020
     44  C         20.3770   60.7760   39.7140 C.2   426  SER426      0.2619
     45  O         19.1570   60.8030   39.4850 O.2   426  SER426     -0.2717
     46  CB        19.8040   61.0920   42.1650 C.3   426  SER426      0.2103
     47  OG        20.2280   60.7050   43.4560 O.3   426  SER426     -0.2182
     48  N         21.2950   60.6980   38.7540 N.am  427  SER427     -0.1937
     49  CA        20.9340   60.4480   37.3670 C.3   427  SER427      0.2055
     50  C         20.5460   58.9930   37.2170 C.2   427  SER427      0.2643
     51  O         21.3010   58.1100   37.6260 O.2   427  SER427     -0.2714
     52  CB        22.1260   60.7210   36.4350 C.3   427  SER427      0.2130
     53  OG        21.7730   60.3710   35.1100 O.3   427  SER427     -0.2179
     54  N         19.3910   58.7360   36.6130 N.am  428  PHE428     -0.1973
     55  CA        19.0660   57.3670   36.2370 C.3   428  PHE428      0.1639
     56  C         20.0220   56.9110   35.1210 C.2   428  PHE428      0.2290
     57  O         20.6180   57.7520   34.4280 O.2   428  PHE428     -0.2864
     58  CB        17.5440   57.1550   36.0020 C.3   428  PHE428      0.0560
     59  CG        16.9850   57.6990   34.6930 C.ar  428  PHE428     -0.0200
     60  CD1       17.7350   58.4670   33.8110 C.ar  428  PHE428     -0.0042
     61  CD2       15.6550   57.4400   34.3710 C.ar  428  PHE428     -0.0042
     62  CE1       17.1710   58.9520   32.6170 C.ar  428  PHE428     -0.0003
     63  CE2       15.0790   57.9140   33.1780 C.ar  428  PHE428     -0.0003
     64  CZ        15.8400   58.6770   32.3080 C.ar  428  PHE428     -0.0000
     65  N         16.1120   49.6510   38.0510 N.3   452  GLY452     -0.1210
     66  CA        14.7320   49.5990   37.5830 C.3   452  GLY452      0.1956
     67  C         14.7030   49.6650   36.0660 C.2   452  GLY452      0.2612
     68  O         15.7070   50.0080   35.4360 O.2   452  GLY452     -0.2717
     69  N         13.5570   49.3440   35.4700 N.am  453  ASP453     -0.1959
     70  CA        13.4370   49.3380   34.0060 C.3   453  ASP453      0.1840
     71  C         13.5870   50.7300   33.3700 C.2   453  ASP453      0.2623
     72  O         14.2160   50.8620   32.3210 O.2   453  ASP453     -0.2715
     73  CB        12.1270   48.6840   33.5760 C.3   453  ASP453      0.1450
     74  CG        10.9090   49.3290   34.2170 C.2   453  ASP453      0.3671
     75  OD1       10.7800   49.2680   35.4650 O.co2 453  ASP453     -0.2456
     76  OD2       10.0760   49.8910   33.4730 O.co2 453  ASP453     -0.2456
     77  N         13.0170   51.7540   34.0070 N.am  454  GLY454     -0.1940
     78  CA        13.1150   53.1290   33.5230 C.3   454  GLY454      0.2014
     79  C         14.5550   53.6120   33.4780 C.2   454  GLY454      0.2639
     80  O         15.0520   54.0200   32.4240 O.2   454  GLY454     -0.2714
     81  N         15.2270   53.5530   34.6280 N.am  455  GLY455     -0.1954
     82  CA        16.6150   53.9770   34.7410 C.3   455  GLY455      0.1869
     83  C         17.5710   53.0930   33.9690 C.2   455  GLY455      0.2309
     84  O         18.4570   53.5910   33.2670 O.2   455  GLY455     -0.2863
     85  N         14.8210   45.1250   37.9790 N.3   478  VAL478     -0.1245
     86  CA        13.4740   45.0160   38.5400 C.3   478  VAL478      0.1561
     87  C         12.5040   45.8070   37.6730 C.2   478  VAL478      0.2260
     88  O         12.5750   47.0350   37.5930 O.2   478  VAL478     -0.2867
     89  CB        13.3890   45.3760   40.0710 C.3   478  VAL478      0.0252
     90  CG1       14.1350   44.3400   40.8920 C.3   478  VAL478      0.0019
     91  CG2       13.9080   46.7930   40.3730 C.3   478  VAL478      0.0019
     92  N          8.7780   46.9630   36.2080 N.3   480  ASN480     -0.1240
     93  CA         7.3370   47.1660   36.2850 C.3   480  ASN480      0.1653
     94  C          6.7540   48.0230   35.1420 C.2   480  ASN480      0.2266
     95  O          5.6520   48.5450   35.2630 O.2   480  ASN480     -0.2867
     96  CB         6.8990   47.6350   37.6980 C.3   480  ASN480      0.1155
     97  CG         7.2170   49.1020   37.9870 C.2   480  ASN480      0.2627
     98  OD1        8.1870   49.6730   37.4730 O.2   480  ASN480     -0.2716
     99  ND2        6.3910   49.7170   38.8360 N.am  480  ASN480     -0.0877
    100  N          7.3960   50.9680   34.1590 N.3   482  THR482     -0.1203
    101  CA         7.0170   52.2790   34.6640 C.3   482  THR482      0.1994
    102  C          8.2350   52.9880   35.2370 C.2   482  THR482      0.2618
    103  O          9.1560   52.3410   35.7520 O.2   482  THR482     -0.2717
    104  CB         5.9370   52.1530   35.7930 C.3   482  THR482      0.1784
    105  OG1        4.9120   51.2290   35.3960 O.3   482  THR482     -0.2211
    106  CG2        5.2860   53.4990   36.1180 C.3   482  THR482      0.0376
    107  N          8.2410   54.3140   35.1150 N.am  483  ASN483     -0.1960
    108  CA         9.0490   55.1720   35.9700 C.3   483  ASN483      0.1819
    109  C          8.2940   55.2520   37.3090 C.2   483  ASN483      0.2622
    110  O          7.4920   56.1670   37.5290 O.2   483  ASN483     -0.2715
    111  CB         9.2390   56.5610   35.3250 C.3   483  ASN483      0.1195
    112  CG        10.3420   56.5760   34.2420 C.2   483  ASN483      0.2630
    113  OD1       11.2350   55.7260   34.2360 O.2   483  ASN483     -0.2716
    114  ND2       10.2790   57.5580   33.3310 N.am  483  ASN483     -0.0877
    115  N          8.5310   54.2590   38.1710 N.am  484  GLY484     -0.1940
    116  CA         7.6860   53.9930   39.3420 C.3   484  GLY484      0.2014
    117  C          7.6780   55.0860   40.3940 C.2   484  GLY484      0.2639
    118  O          6.6160   55.5060   40.8490 O.2   484  GLY484     -0.2714
    119  N          8.8640   55.5440   40.7920 N.am  485  LEU485     -0.1963
    120  CA         8.9820   56.6340   41.7620 C.3   485  LEU485      0.1728
    121  C          8.1800   57.8560   41.3040 C.2   485  LEU485      0.2616
    122  O          7.5260   58.5340   42.1080 O.2   485  LEU485     -0.2715
    123  CB        10.4600   57.0060   41.9790 C.3   485  LEU485      0.0311
    124  CG        10.7930   58.0070   43.0980 C.3   485  LEU485      0.0022
    125  CD1       10.2890   57.5280   44.4520 C.3   485  LEU485      0.0001
    126  CD2       12.2900   58.2490   43.1480 C.3   485  LEU485      0.0001
    127  N          8.2130   58.1110   39.9990 N.am  486  ILE486     -0.1977
    128  CA         7.5450   59.2740   39.4240 C.3   486  ILE486      0.1596
    129  C          6.0170   59.1480   39.4830 C.2   486  ILE486      0.2287
    130  O          5.3220   60.1380   39.7060 O.2   486  ILE486     -0.2864
    131  CB         8.0460   59.5620   37.9820 C.3   486  ILE486      0.0276
    132  CG1        9.5920   59.5980   37.9330 C.3   486  ILE486      0.0022
    133  CG2        7.4230   60.8440   37.4490 C.3   486  ILE486      0.0022
    134  CD1       10.2650   60.4440   39.0470 C.3   486  ILE486      0.0001
    135  N          4.9550   47.3860   43.3210 N.3   551  TYR551     -0.1241
    136  CA         5.0650   48.1650   44.5570 C.3   551  TYR551      0.1605
    137  C          3.7050   48.2890   45.2330 C.2   551  TYR551      0.2264
    138  O          2.7220   48.6410   44.5780 O.2   551  TYR551     -0.2867
    139  CB         5.6570   49.5530   44.2780 C.3   551  TYR551      0.0534
    140  CG         6.9690   49.5270   43.5260 C.ar  551  TYR551     -0.0201
    141  CD1        8.0940   48.9070   44.0670 C.ar  551  TYR551     -0.0009
    142  CD2        7.0920   50.1400   42.2830 C.ar  551  TYR551     -0.0009
    143  CE1        9.3030   48.8850   43.3790 C.ar  551  TYR551      0.0417
    144  CE2        8.3000   50.1270   41.5870 C.ar  551  TYR551      0.0417
    145  CZ         9.4000   49.4950   42.1410 C.ar  551  TYR551      0.1957
    146  OH        10.5960   49.4770   41.4620 O.3   551  TYR551     -0.2866
@<TRIPOS>BOND
     1     6     5    1
     2     1     2    1
     3    64    62   ar
     4    64    63   ar
     5    72    71    2
     6    80    79    2
     7     5     2    1
     8     5     7    1
     9    62    60   ar
    10     2     3    1
    11    63    61   ar
    12    84    83    2
    13   114   112   am
    14    71    70    1
    15    71    77   am
    16    76    74   ar
    17    79    78    1
    18    79    81   am
    19    78    77    1
    20    73    70    1
    21    73    74    1
    22    60    59   ar
    23    83    82    1
    24     3     4    2
    25    70    69    1
    26   100   101    1
    27    74    75   ar
    28   113   112    2
    29   112   111    1
    30    61    59   ar
    31    57    56    2
    32    81    82    1
    33   101   102    1
    34   101   104    1
    35    59    58    1
    36    53    52    1
    37   107   102   am
    38   107   108    1
    39    56    55    1
    40    94    95    2
    41    94    93    1
    42   102   103    2
    43   111   108    1
    44   105   104    1
    45    68    67    2
    46    69    67   am
    47   104   106    1
    48   108   109    1
    49    58    55    1
    50    67    66    1
    51    92    93    1
    52    55    54    1
    53    93    96    1
    54    52    49    1
    55    54    50   am
    56    50    49    1
    57    50    51    2
    58   109   110    2
    59   109   115   am
    60    49    48    1
    61   133   131    1
    62    98    97    2
    63    66    65    1
    64    88    87    2
    65    87    86    1
    66    96    97    1
    67   132   131    1
    68   132   134    1
    69    85    86    1
    70   131   128    1
    71    97    99   am
    72   115   116    1
    73    86    89    1
    74    48    44   am
    75   116   117    1
    76    11    10    2
    77   128   129    1
    78   128   127    1
    79   129   130    2
    80    45    44    2
    81    44    43    1
    82   127   121   am
    83    89    91    1
    84    89    90    1
    85     8     9    1
    86    12    13    1
    87    12     9    1
    88    12    14    1
    89    13    15    1
    90   117   119   am
    91   117   118    2
    92    10     9    1
    93    10    16   am
    94    39    41   ar
    95    39    37   ar
    96   119   120    1
    97    41    40   ar
    98    43    42    1
    99    43    46    1
   100   121   120    1
   101   121   122    2
   102    37    36   ar
   103    17    16    1
   104    17    18    1
   105   146   145    1
   106   144   145   ar
   107   144   142   ar
   108   120   123    1
   109    40    38   ar
   110   123   124    1
   111   145   143   ar
   112    46    47    1
   113   142   140   ar
   114    36    38   ar
   115    36    35    1
   116    18    20   am
   117    18    19    2
   118    20    21    1
   119   124   126    1
   120   124   125    1
   121    35    32    1
   122   135   136    1
   123   143   141   ar
   124   140   141   ar
   125   140   139    1
   126    24    21    1
   127    24    25    1
   128    31    32    1
   129    31    22   am
   130    21    22    1
   131   139   136    1
   132    32    33    1
   133   136   137    1
   134   138   137    2
   135    22    23    2
   136    33    34    2
   137    25    27   ar
   138    25    26   ar
   139    27    29   ar
   140    26    28   ar
   141    29    30   ar
   142    28    30   ar
