@<TRIPOS>MOLECULE
tmp/2ihuC00.pdb
 211 207 0 0 0
SMALL
GASTEIGER

@<TRIPOS>ATOM
      1  N         31.6890  101.6680   33.9830 N.3    80  THR80      -0.1218
      2  CA        30.5530  102.5740   34.1940 C.3    80  THR80       0.1862
      3  C         30.1820  103.3580   32.9260 C.2    80  THR80       0.2287
      4  O         29.0030  103.6280   32.6880 O.2    80  THR80      -0.2866
      5  CB        30.7610  103.5190   35.3910 C.3    80  THR80       0.1770
      6  OG1       31.0780  102.7330   36.5380 O.3    80  THR80      -0.2211
      7  CG2       29.4870  104.2880   35.6850 C.3    80  THR80       0.0375
      8  N         13.0590  111.6710   27.5380 N.3   241  TYR241     -0.1241
      9  CA        14.1240  112.5760   28.0030 C.3   241  TYR241      0.1605
     10  C         15.1220  112.9130   26.9100 C.2   241  TYR241      0.2264
     11  O         15.7260  113.9880   26.9250 O.2   241  TYR241     -0.2867
     12  CB        14.9470  111.9210   29.1240 C.3   241  TYR241      0.0534
     13  CG        14.2920  111.7260   30.4790 C.ar  241  TYR241     -0.0201
     14  CD1       12.9290  111.9380   30.6790 C.ar  241  TYR241     -0.0009
     15  CD2       15.0500  111.2810   31.5540 C.ar  241  TYR241     -0.0009
     16  CE1       12.3420  111.7320   31.9260 C.ar  241  TYR241      0.0417
     17  CE2       14.4810  111.0700   32.7940 C.ar  241  TYR241      0.0417
     18  CZ        13.1280  111.3010   32.9770 C.ar  241  TYR241      0.1957
     19  OH        12.5760  111.0960   34.2280 O.3   241  TYR241     -0.2866
     20  N          7.5840  113.5260   38.3310 N.3   261  TYR261     -0.1241
     21  CA         7.4970  114.6210   39.2980 C.3   261  TYR261      0.1605
     22  C          6.9050  115.8960   38.7090 C.2   261  TYR261      0.2264
     23  O          6.8950  116.9330   39.3650 O.2   261  TYR261     -0.2867
     24  CB         8.8660  114.9380   39.9120 C.3   261  TYR261      0.0534
     25  CG         9.4660  113.8430   40.7680 C.ar  261  TYR261     -0.0201
     26  CD1        8.6710  112.8770   41.3770 C.ar  261  TYR261     -0.0009
     27  CD2       10.8390  113.8020   40.9990 C.ar  261  TYR261     -0.0009
     28  CE1        9.2400  111.8760   42.1710 C.ar  261  TYR261      0.0417
     29  CE2       11.4130  112.8110   41.7850 C.ar  261  TYR261      0.0417
     30  CZ        10.6130  111.8570   42.3680 C.ar  261  TYR261      0.1957
     31  OH        11.1920  110.8800   43.1490 O.3   261  TYR261     -0.2866
     32  N         13.0200  105.2660   30.0030 N.3   291  ASP291     -0.1239
     33  CA        12.2560  105.4960   31.2300 C.3   291  ASP291      0.1674
     34  C         10.9250  106.2380   31.0790 C.2   291  ASP291      0.2266
     35  O         10.4150  106.7970   32.0530 O.2   291  ASP291     -0.2867
     36  CB        13.1180  106.1310   32.3310 C.3   291  ASP291      0.1410
     37  CG        12.6800  105.6970   33.7400 C.2   291  ASP291      0.3668
     38  OD1       12.1930  104.5490   33.9100 O.co2 291  ASP291     -0.2456
     39  OD2       12.8270  106.5040   34.6720 O.co2 291  ASP291     -0.2456
     40  N         22.7650  114.3350   36.6940 N.3   400  ILE400     -0.1231
     41  CA        21.6880  113.5810   37.3280 C.3   400  ILE400      0.1692
     42  C         21.4030  114.1150   38.7380 C.2   400  ILE400      0.2593
     43  O         22.3290  114.4430   39.4880 O.2   400  ILE400     -0.2718
     44  CB        22.0340  112.0560   37.3980 C.3   400  ILE400      0.0266
     45  CG1       22.6710  111.5600   36.0890 C.3   400  ILE400      0.0019
     46  CG2       20.8200  111.2390   37.7970 C.3   400  ILE400      0.0020
     47  CD1       21.8400  111.7620   34.8230 C.3   400  ILE400      0.0001
     48  N         20.1210  114.1880   39.0820 N.am  401  GLY401     -0.1942
     49  CA        19.6730  114.6990   40.3740 C.3   401  GLY401      0.2014
     50  C         18.2480  115.2110   40.2840 C.2   401  GLY401      0.2639
     51  O         17.6070  115.0970   39.2290 O.2   401  GLY401     -0.2714
     52  N         17.7440  115.7760   41.3820 N.am  402  PHE402     -0.1959
     53  CA        16.3900  116.3530   41.3980 C.3   402  PHE402      0.1771
     54  C         16.2350  117.4530   40.3430 C.2   402  PHE402      0.2620
     55  O         15.2050  117.5420   39.6710 O.2   402  PHE402     -0.2715
     56  CB        16.0110  116.8720   42.8010 C.3   402  PHE402      0.0574
     57  CG        14.6210  117.4660   42.8750 C.ar  402  PHE402     -0.0200
     58  CD1       13.4960  116.6810   42.6280 C.ar  402  PHE402     -0.0042
     59  CD2       14.4390  118.8100   43.1930 C.ar  402  PHE402     -0.0042
     60  CE1       12.2150  117.2210   42.6850 C.ar  402  PHE402     -0.0003
     61  CE2       13.1580  119.3640   43.2470 C.ar  402  PHE402     -0.0003
     62  CZ        12.0440  118.5640   42.9920 C.ar  402  PHE402     -0.0000
     63  N         17.2850  118.2550   40.1830 N.am  403  PHE403     -0.1960
     64  CA        17.3230  119.3700   39.2420 C.3   403  PHE403      0.1771
     65  C         17.1390  118.9110   37.7900 C.2   403  PHE403      0.2619
     66  O         16.7120  119.6980   36.9340 O.2   403  PHE403     -0.2715
     67  CB        18.6550  120.1290   39.3810 C.3   403  PHE403      0.0574
     68  CG        19.8280  119.3680   38.8390 C.ar  403  PHE403     -0.0200
     69  CD1       20.4850  118.4200   39.6270 C.ar  403  PHE403     -0.0042
     70  CD2       20.2430  119.5480   37.5160 C.ar  403  PHE403     -0.0042
     71  CE1       21.5480  117.6760   39.1130 C.ar  403  PHE403     -0.0003
     72  CE2       21.3080  118.8050   36.9950 C.ar  403  PHE403     -0.0003
     73  CZ        21.9580  117.8640   37.8030 C.ar  403  PHE403     -0.0000
     74  N         17.4630  117.6450   37.5200 N.am  404  ARG404     -0.1963
     75  CA        17.4480  117.1010   36.1630 C.3   404  ARG404      0.1729
     76  C         16.0220  117.0640   35.6140 C.2   404  ARG404      0.2616
     77  O         15.8070  117.2130   34.4110 O.2   404  ARG404     -0.2715
     78  CB        18.1010  115.7070   36.1370 C.3   404  ARG404      0.0348
     79  CG        18.2460  115.0720   34.7580 C.3   404  ARG404      0.0492
     80  CD        17.0850  114.1440   34.4140 C.3   404  ARG404      0.2205
     81  NE        17.1040  112.8730   35.1440 N.pl3 404  ARG404     -0.0865
     82  CZ        17.7710  111.7840   34.7650 C.cat 404  ARG404      0.5346
     83  NH1       18.5140  111.7860   33.6600 N.pl3 404  ARG404      0.1354
     84  NH2       17.6930  110.6820   35.4990 N.pl3 404  ARG404      0.1354
     85  N         15.0560  116.8760   36.5080 N.am  405  HIS405     -0.1973
     86  CA        13.6410  116.9280   36.1520 C.3   405  HIS405      0.1656
     87  C         13.2790  118.2610   35.5080 C.2   405  HIS405      0.2291
     88  O         12.4800  118.3010   34.5730 O.2   405  HIS405     -0.2864
     89  CB        12.7720  116.6940   37.3890 C.3   405  HIS405      0.0771
     90  CG        12.7950  115.2800   37.8780 C.ar  405  HIS405      0.0820
     91  ND1       11.7960  114.3750   37.5860 N.ar  405  HIS405     -0.2267
     92  CD2       13.7040  114.6120   38.6270 C.ar  405  HIS405      0.1154
     93  CE1       12.0880  113.2100   38.1380 C.ar  405  HIS405      0.1986
     94  NE2       13.2370  113.3290   38.7820 N.ar  405  HIS405     -0.2212
     95  N         21.7800  106.7130   34.0350 N.3   426  SER426     -0.1202
     96  CA        21.7090  107.8120   35.0180 C.3   426  SER426      0.2020
     97  C         22.8100  107.7850   36.0740 C.2   426  SER426      0.2619
     98  O         22.5270  107.8830   37.2730 O.2   426  SER426     -0.2717
     99  CB        20.3420  107.8670   35.7090 C.3   426  SER426      0.2103
    100  OG        19.3000  108.0510   34.7780 O.3   426  SER426     -0.2182
    101  N         24.0590  107.6310   35.6420 N.am  427  SER427     -0.1937
    102  CA        25.1740  107.7990   36.5680 C.3   427  SER427      0.2055
    103  C         25.3780  109.2780   36.8650 C.2   427  SER427      0.2643
    104  O         25.4680  110.0820   35.9300 O.2   427  SER427     -0.2714
    105  CB        26.4730  107.2410   35.9860 C.3   427  SER427      0.2130
    106  OG        27.5540  107.5890   36.8400 O.3   427  SER427     -0.2179
    107  N         25.4570  109.6520   38.1420 N.am  428  PHE428     -0.1973
    108  CA        25.8890  111.0140   38.4610 C.3   428  PHE428      0.1639
    109  C         27.3300  111.2170   37.9590 C.2   428  PHE428      0.2290
    110  O         28.0450  110.2340   37.7130 O.2   428  PHE428     -0.2864
    111  CB        25.6160  111.4270   39.9370 C.3   428  PHE428      0.0560
    112  CG        26.5280  110.8050   40.9880 C.ar  428  PHE428     -0.0200
    113  CD1       27.5410  109.9040   40.6760 C.ar  428  PHE428     -0.0042
    114  CD2       26.3390  111.1350   42.3300 C.ar  428  PHE428     -0.0042
    115  CE1       28.3550  109.3370   41.6870 C.ar  428  PHE428     -0.0003
    116  CE2       27.1460  110.5820   43.3440 C.ar  428  PHE428     -0.0003
    117  CZ        28.1530  109.6750   43.0150 C.ar  428  PHE428     -0.0000
    118  N         24.2660  119.2150   39.6030 N.3   452  GLY452     -0.1210
    119  CA        24.1240  119.4500   41.0380 C.3   452  GLY452      0.1956
    120  C         25.4560  119.2030   41.7050 C.2   452  GLY452      0.2612
    121  O         26.3350  118.5960   41.1080 O.2   452  GLY452     -0.2717
    122  N         25.6030  119.6640   42.9420 N.am  453  ASP453     -0.1959
    123  CA        26.8670  119.5440   43.6730 C.3   453  ASP453      0.1840
    124  C         27.2840  118.0950   43.9620 C.2   453  ASP453      0.2623
    125  O         28.4680  117.7950   43.9890 O.2   453  ASP453     -0.2715
    126  CB        26.8250  120.3540   44.9810 C.3   453  ASP453      0.1450
    127  CG        25.7130  119.9080   45.9140 C.2   453  ASP453      0.3671
    128  OD1       24.5220  120.0430   45.5530 O.co2 453  ASP453     -0.2456
    129  OD2       26.0280  119.4210   47.0190 O.co2 453  ASP453     -0.2456
    130  N         26.3090  117.2130   44.1780 N.am  454  GLY454     -0.1940
    131  CA        26.5760  115.7950   44.4550 C.3   454  GLY454      0.2014
    132  C         27.1660  115.0830   43.2520 C.2   454  GLY454      0.2639
    133  O         28.2640  114.5330   43.3160 O.2   454  GLY454     -0.2714
    134  N         26.4380  115.1160   42.1430 N.am  455  GLY455     -0.1954
    135  CA        26.8880  114.4930   40.8990 C.3   455  GLY455      0.1869
    136  C         28.0750  115.1980   40.2740 C.2   455  GLY455      0.2309
    137  O         29.0300  114.5510   39.8320 O.2   455  GLY455     -0.2863
    138  N         24.3940  123.7830   40.3960 N.3   478  VAL478     -0.1245
    139  CA        23.3570  124.1420   41.3620 C.3   478  VAL478      0.1561
    140  C         23.6660  123.4420   42.6790 C.2   478  VAL478      0.2260
    141  O         23.6240  122.2170   42.7620 O.2   478  VAL478     -0.2867
    142  CB        21.9040  123.8680   40.8440 C.3   478  VAL478      0.0252
    143  CG1       21.5540  124.8370   39.7210 C.3   478  VAL478      0.0019
    144  CG2       21.7120  122.4150   40.3850 C.3   478  VAL478      0.0019
    145  N         23.3170  122.7380   46.7630 N.3   480  ASN480     -0.1240
    146  CA        22.5750  122.7560   48.0210 C.3   480  ASN480      0.1653
    147  C         23.2080  121.8880   49.1130 C.2   480  ASN480      0.2266
    148  O         22.5480  121.5270   50.0940 O.2   480  ASN480     -0.2867
    149  CB        21.0890  122.4420   47.7980 C.3   480  ASN480      0.1155
    150  CG        20.8030  120.9510   47.6320 C.2   480  ASN480      0.2627
    151  OD1       21.6300  120.1840   47.1320 O.2   480  ASN480     -0.2716
    152  ND2       19.6110  120.5420   48.0460 N.am  480  ASN480     -0.0877
    153  N         23.9840  118.7980   49.2530 N.3   482  THR482     -0.1203
    154  CA        23.1820  117.5960   49.4960 C.3   482  THR482      0.1994
    155  C         23.0270  116.7670   48.2240 C.2   482  THR482      0.2618
    156  O         23.0130  117.3150   47.1080 O.2   482  THR482     -0.2717
    157  CB        21.7440  117.9710   49.9810 C.3   482  THR482      0.1784
    158  OG1       21.8180  119.0180   50.9510 O.3   482  THR482     -0.2211
    159  CG2       21.0040  116.7700   50.5840 C.3   482  THR482      0.0376
    160  N         22.9110  115.4500   48.3980 N.am  483  ASN483     -0.1960
    161  CA        22.3380  114.5930   47.3690 C.3   483  ASN483      0.1819
    162  C         20.8310  114.7420   47.5220 C.2   483  ASN483      0.2622
    163  O         20.1870  113.9640   48.2310 O.2   483  ASN483     -0.2715
    164  CB        22.7700  113.1240   47.5520 C.3   483  ASN483      0.1195
    165  CG        24.2250  112.8670   47.1350 C.2   483  ASN483      0.2630
    166  OD1       24.7740  113.5630   46.2820 O.2   483  ASN483     -0.2716
    167  ND2       24.8430  111.8430   47.7310 N.am  483  ASN483     -0.0877
    168  N         20.2890  115.7790   46.8840 N.am  484  GLY484     -0.1940
    169  CA        18.9280  116.2490   47.1400 C.3   484  GLY484      0.2014
    170  C         17.8430  115.2570   46.7870 C.2   484  GLY484      0.2639
    171  O         16.9230  115.0210   47.5870 O.2   484  GLY484     -0.2714
    172  N         17.9390  114.6820   45.5860 N.am  485  LEU485     -0.1963
    173  CA        16.9780  113.6820   45.1410 C.3   485  LEU485      0.1728
    174  C         16.9040  112.5390   46.1480 C.2   485  LEU485      0.2616
    175  O         15.8380  111.9880   46.3880 O.2   485  LEU485     -0.2715
    176  CB        17.3430  113.1420   43.7540 C.3   485  LEU485      0.0311
    177  CG        16.3560  112.1960   43.0560 C.3   485  LEU485      0.0022
    178  CD1       14.9290  112.7570   43.0410 C.3   485  LEU485      0.0001
    179  CD2       16.8280  111.8570   41.6280 C.3   485  LEU485      0.0001
    180  N         18.0450  112.2000   46.7370 N.am  486  ILE486     -0.1977
    181  CA        18.1240  111.0960   47.6900 C.3   486  ILE486      0.1596
    182  C         17.4430  111.4620   49.0210 C.2   486  ILE486      0.2287
    183  O         16.7650  110.6280   49.6250 O.2   486  ILE486     -0.2864
    184  CB        19.5890  110.5980   47.8800 C.3   486  ILE486      0.0276
    185  CG1       20.3010  110.4480   46.5150 C.3   486  ILE486      0.0022
    186  CG2       19.6260  109.2850   48.6860 C.3   486  ILE486      0.0022
    187  CD1       19.5460  109.6270   45.4680 C.3   486  ILE486      0.0001
    188  N         13.8880  110.9680   48.3990 N.3   489  TYR489     -0.1241
    189  CA        13.5660  109.5430   48.5390 C.3   489  TYR489      0.1605
    190  C         13.4220  109.0870   49.9890 C.2   489  TYR489      0.2264
    191  O         12.5240  108.2960   50.3010 O.2   489  TYR489     -0.2867
    192  CB        14.5470  108.6590   47.7640 C.3   489  TYR489      0.0534
    193  CG        14.1660  108.5510   46.3030 C.ar  489  TYR489     -0.0201
    194  CD1       13.0190  107.8560   45.9200 C.ar  489  TYR489     -0.0009
    195  CD2       14.9290  109.1690   45.3070 C.ar  489  TYR489     -0.0009
    196  CE1       12.6470  107.7610   44.5820 C.ar  489  TYR489      0.0417
    197  CE2       14.5610  109.0790   43.9530 C.ar  489  TYR489      0.0417
    198  CZ        13.4180  108.3720   43.6070 C.ar  489  TYR489      0.1957
    199  OH        13.0280  108.2630   42.2880 O.3   489  TYR489     -0.2866
    200  N         15.6970  123.3340   47.6450 N.3   551  TYR551     -0.1241
    201  CA        14.4820  122.5660   47.3720 C.3   551  TYR551      0.1605
    202  C         13.6220  122.5110   48.6360 C.2   551  TYR551      0.2264
    203  O         12.4020  122.7080   48.5790 O.2   551  TYR551     -0.2867
    204  CB        14.7970  121.1360   46.8950 C.3   551  TYR551      0.0534
    205  CG        15.9300  121.0100   45.8880 C.ar  551  TYR551     -0.0201
    206  CD1       15.9840  121.8200   44.7540 C.ar  551  TYR551     -0.0009
    207  CD2       16.9320  120.0520   46.0610 C.ar  551  TYR551     -0.0009
    208  CE1       17.0230  121.7010   43.8380 C.ar  551  TYR551      0.0417
    209  CE2       17.9750  119.9250   45.1480 C.ar  551  TYR551      0.0417
    210  CZ        18.0130  120.7500   44.0360 C.ar  551  TYR551      0.1957
    211  OH        19.0410  120.6330   43.1260 O.3   551  TYR551     -0.2866
@<TRIPOS>BOND
     1    10    11    2
     2    10     9    1
     3     8     9    1
     4     9    12    1
     5    12    13    1
     6    32    33    1
     7    13    14   ar
     8    13    15   ar
     9    14    16   ar
    10    34    33    1
    11    34    35    2
    12    33    36    1
    13    15    17   ar
    14    16    18   ar
    15    36    37    1
    16     4     3    2
    17    17    18   ar
    18     3     2    1
    19    18    19    1
    20    83    82    1
    21    37    38   ar
    22    37    39   ar
    23     1     2    1
    24    95    96    1
    25     2     5    1
    26    77    76    2
    27    80    79    1
    28    80    81    1
    29    88    87    2
    30    79    78    1
    31    82    81    2
    32    82    84    1
    33   100    99    1
    34    47    45    1
    35    96    99    1
    36    96    97    1
    37     5     7    1
    38     5     6    1
    39    87    86    1
    40    76    75    1
    41    76    85   am
    42   101    97   am
    43   101   102    1
    44   104   103    2
    45   105   102    1
    46   105   106    1
    47    97    98    2
    48    45    44    1
    49    78    75    1
    50    86    85    1
    51    86    89    1
    52    75    74    1
    53   102   103    1
    54    40    41    1
    55   103   107   am
    56    66    65    2
    57    72    70   ar
    58    72    73   ar
    59    41    44    1
    60    41    42    1
    61    89    90    1
    62    44    46    1
    63    70    68   ar
    64    74    65   am
    65    91    90   ar
    66    91    93   ar
    67   110   109    2
    68    65    64    1
    69    73    71   ar
    70    90    92   ar
    71   109   108    1
    72    93    94   ar
    73   107   108    1
    74    20    21    1
    75   108   111    1
    76    92    94   ar
    77    22    21    1
    78    22    23    2
    79    42    48   am
    80    42    43    2
    81    68    67    1
    82    68    69   ar
    83    48    49    1
    84    71    69   ar
    85    51    50    2
    86    64    67    1
    87    64    63    1
    88    21    24    1
    89   118   119    1
    90    55    54    2
    91   143   142    1
    92   137   136    2
    93    24    25    1
    94   111   112    1
    95    63    54   am
    96   136   135    1
    97    50    49    1
    98    50    52   am
    99    54    53    1
   100   144   142    1
   101   138   139    1
   102   113   112   ar
   103   113   115   ar
   104    25    27   ar
   105    25    26   ar
   106   142   139    1
   107   135   134    1
   108   112   114   ar
   109    27    29   ar
   110   119   120    1
   111   121   120    2
   112   139   140    1
   113    26    28   ar
   114    52    53    1
   115    53    56    1
   116   179   177    1
   117   115   117   ar
   118   120   122   am
   119    29    30   ar
   120   134   132   am
   121    28    30   ar
   122   199   198    1
   123   114   116   ar
   124    30    31    1
   125    58    60   ar
   126    58    57   ar
   127   140   141    2
   128    60    62   ar
   129    56    57    1
   130    57    59   ar
   131   122   123    1
   132    62    61   ar
   133   117   116   ar
   134   178   177    1
   135   177   176    1
   136   211   210    1
   137    59    61   ar
   138   132   133    2
   139   132   131    1
   140   198   197   ar
   141   198   196   ar
   142   123   124    1
   143   123   126    1
   144   176   173    1
   145   208   210   ar
   146   208   206   ar
   147   197   195   ar
   148   124   125    2
   149   124   130   am
   150   210   209   ar
   151   130   131    1
   152   196   194   ar
   153   206   205   ar
   154   126   127    1
   155   173   172    1
   156   173   174    1
   157   209   207   ar
   158   195   193   ar
   159   187   185    1
   160   128   127   ar
   161   172   170   am
   162   205   207   ar
   163   205   204    1
   164   127   129   ar
   165   194   193   ar
   166   174   175    2
   167   174   180   am
   168   166   165    2
   169   193   192    1
   170   185   184    1
   171   180   181    1
   172   145   146    1
   173   170   169    1
   174   170   171    2
   175   168   169    1
   176   168   162   am
   177   204   201    1
   178   156   155    2
   179   151   150    2
   180   165   164    1
   181   165   167   am
   182   161   162    1
   183   161   164    1
   184   161   160    1
   185   201   200    1
   186   201   202    1
   187   162   163    2
   188   150   149    1
   189   150   152   am
   190   181   184    1
   191   181   182    1
   192   192   189    1
   193   149   146    1
   194   184   186    1
   195   146   147    1
   196   155   160   am
   197   155   154    1
   198   188   189    1
   199   189   190    1
   200   203   202    2
   201   182   183    2
   202   147   148    2
   203   153   154    1
   204   154   157    1
   205   157   159    1
   206   157   158    1
   207   190   191    2
