@<TRIPOS>MOLECULE
tmp/2ihuA02.pdb
 110 106 0 0 0
SMALL
GASTEIGER

@<TRIPOS>ATOM
      1  N         23.7590   70.0830    3.4720 N.3   241  TYR241     -0.1241
      2  CA        23.1540   68.7690    3.7830 C.3   241  TYR241      0.1605
      3  C         21.6340   68.7930    3.8680 C.2   241  TYR241      0.2264
      4  O         20.9570   67.9450    3.2830 O.2   241  TYR241     -0.2867
      5  CB        23.6450   68.1760    5.1150 C.3   241  TYR241      0.0534
      6  CG        25.1270   68.1090    5.3650 C.ar  241  TYR241     -0.0201
      7  CD1       26.0480   68.2620    4.3380 C.ar  241  TYR241     -0.0009
      8  CD2       25.6090   67.8580    6.6540 C.ar  241  TYR241     -0.0009
      9  CE1       27.4150   68.1940    4.5860 C.ar  241  TYR241      0.0417
     10  CE2       26.9720   67.7880    6.9140 C.ar  241  TYR241      0.0417
     11  CZ        27.8690   67.9560    5.8780 C.ar  241  TYR241      0.1957
     12  OH        29.2200   67.8850    6.1300 O.3   241  TYR241     -0.2866
     13  N         33.8560   65.5450    2.4880 N.3   261  TYR261     -0.1241
     14  CA        34.2740   64.1550    2.3270 C.3   261  TYR261      0.1605
     15  C         34.0670   63.5990    0.9090 C.2   261  TYR261      0.2264
     16  O         34.4500   62.4570    0.6340 O.2   261  TYR261     -0.2867
     17  CB        33.5000   63.2680    3.3080 C.3   261  TYR261      0.0534
     18  CG        33.7770   63.5200    4.7760 C.ar  261  TYR261     -0.0201
     19  CD1       33.1420   64.5570    5.4570 C.ar  261  TYR261     -0.0009
     20  CD2       34.6560   62.7060    5.4890 C.ar  261  TYR261     -0.0009
     21  CE1       33.3870   64.7860    6.8110 C.ar  261  TYR261      0.0417
     22  CE2       34.9020   62.9210    6.8450 C.ar  261  TYR261      0.0417
     23  CZ        34.2640   63.9650    7.5000 C.ar  261  TYR261      0.1957
     24  OH        34.5010   64.1910    8.8410 O.3   261  TYR261     -0.2866
     25  N         28.1250   73.8430    7.8290 N.3   291  ASP291     -0.1239
     26  CA        29.4130   73.2350    7.5030 C.3   291  ASP291      0.1674
     27  C         29.7570   73.1470    6.0050 C.2   291  ASP291      0.2266
     28  O         30.6190   72.3660    5.6000 O.2   291  ASP291     -0.2867
     29  CB        29.5720   71.8700    8.1910 C.3   291  ASP291      0.1410
     30  CG        31.0230   71.5260    8.4680 C.2   291  ASP291      0.3668
     31  OD1       31.8240   72.4500    8.7520 O.co2 291  ASP291     -0.2456
     32  OD2       31.3550   70.3260    8.4070 O.co2 291  ASP291     -0.2456
     33  N         24.6720   60.0320   12.6010 N.3   400  ILE400     -0.1231
     34  CA        25.9970   60.6090   12.3960 C.3   400  ILE400      0.1692
     35  C         27.0280   59.4950   12.2700 C.2   400  ILE400      0.2592
     36  O         26.9640   58.4930   12.9870 O.2   400  ILE400     -0.2718
     37  CB        26.3900   61.5640   13.5740 C.3   400  ILE400      0.0266
     38  CG1       25.3120   62.6380   13.8190 C.3   400  ILE400      0.0019
     39  CG2       27.7560   62.2180   13.3510 C.3   400  ILE400      0.0020
     40  CD1       24.8380   63.4060   12.5990 C.3   400  ILE400      0.0001
     41  N         27.9730   59.6850   11.3480 N.am  401  GLY401     -0.1957
     42  CA        29.0600   58.7460   11.1140 C.3   401  GLY401      0.1869
     43  C         29.5360   58.8840    9.6840 C.2   401  GLY401      0.2309
     44  O         29.0910   59.7800    8.9570 O.2   401  GLY401     -0.2863
     45  N         26.9070   58.8870    6.9420 N.3   404  ARG404     -0.1231
     46  CA        26.0650   60.0870    6.8290 C.3   404  ARG404      0.1694
     47  C         26.4610   60.8820    5.5870 C.2   404  ARG404      0.2592
     48  O         25.6150   61.4550    4.9150 O.2   404  ARG404     -0.2718
     49  CB        26.1630   60.9500    8.1000 C.3   404  ARG404      0.0321
     50  CG        25.3130   62.2280    8.0930 C.3   404  ARG404      0.0489
     51  CD        26.0810   63.4590    7.6130 C.3   404  ARG404      0.2205
     52  NE        26.9980   64.0140    8.6180 N.pl3 404  ARG404     -0.0865
     53  CZ        26.6430   64.8910    9.5580 C.cat 404  ARG404      0.5346
     54  NH1       25.3880   65.3030    9.6460 N.pl3 404  ARG404      0.1354
     55  NH2       27.5430   65.3510   10.4160 N.pl3 404  ARG404      0.1354
     56  N         27.7530   60.8990    5.2830 N.am  405  HIS405     -0.1976
     57  CA        28.2520   61.6210    4.1180 C.3   405  HIS405      0.1656
     58  C         27.9190   60.9340    2.7960 C.2   405  HIS405      0.2291
     59  O         27.7410   61.6020    1.7780 O.2   405  HIS405     -0.2864
     60  CB        29.7310   61.9500    4.2910 C.3   405  HIS405      0.0771
     61  CG        29.9740   62.8580    5.4520 C.ar  405  HIS405      0.0820
     62  ND1       29.7140   64.2120    5.3990 N.ar  405  HIS405     -0.2267
     63  CD2       30.3660   62.5990    6.7210 C.ar  405  HIS405      0.1154
     64  CE1       29.9710   64.7520    6.5770 C.ar  405  HIS405      0.1986
     65  NE2       30.3750   63.7960    7.3940 N.ar  405  HIS405     -0.2212
     66  N         25.6450   67.7390   15.1320 N.3   426  SER426     -0.1217
     67  CA        26.1170   66.3890   14.7840 C.3   426  SER426      0.1889
     68  C         26.3670   65.4550   15.9820 C.2   426  SER426      0.2288
     69  O         27.4350   64.8420   16.1070 O.2   426  SER426     -0.2866
     70  CB        27.3310   66.4600   13.8450 C.3   426  SER426      0.2089
     71  OG        26.9520   67.0920   12.6290 O.3   426  SER426     -0.2183
     72  N         25.9150   62.0090   17.5960 N.3   428  PHE428     -0.1241
     73  CA        25.5090   60.6570   17.2500 C.3   428  PHE428      0.1605
     74  C         24.3060   60.2520   18.1260 C.2   428  PHE428      0.2264
     75  O         24.0960   60.8380   19.1990 O.2   428  PHE428     -0.2867
     76  CB        26.7060   59.6810   17.1890 C.3   428  PHE428      0.0534
     77  CG        27.2390   59.1920   18.5220 C.ar  428  PHE428     -0.0203
     78  CD1       26.7960   59.6930   19.7460 C.ar  428  PHE428     -0.0042
     79  CD2       28.2320   58.2160   18.5270 C.ar  428  PHE428     -0.0042
     80  CE1       27.3260   59.2140   20.9530 C.ar  428  PHE428     -0.0003
     81  CE2       28.7660   57.7230   19.7270 C.ar  428  PHE428     -0.0003
     82  CZ        28.3120   58.2290   20.9420 C.ar  428  PHE428     -0.0000
     83  N         33.9960   56.3890   11.1620 N.3   485  LEU485     -0.1231
     84  CA        34.5310   57.7180   10.8640 C.3   485  LEU485      0.1693
     85  C         35.7450   58.0500   11.7360 C.2   485  LEU485      0.2591
     86  O         36.7120   58.6360   11.2620 O.2   485  LEU485     -0.2718
     87  CB        33.4440   58.7960   11.0080 C.3   485  LEU485      0.0284
     88  CG        33.7900   60.2280   10.5570 C.3   485  LEU485      0.0019
     89  CD1       34.2570   60.2750    9.1130 C.3   485  LEU485      0.0001
     90  CD2       32.5910   61.1330   10.7320 C.3   485  LEU485      0.0001
     91  N         35.7000   57.6600   13.0040 N.am  486  ILE486     -0.1980
     92  CA        36.7870   57.9810   13.9310 C.3   486  ILE486      0.1595
     93  C         38.0550   57.1770   13.5960 C.2   486  ILE486      0.2287
     94  O         39.1860   57.6860   13.7330 O.2   486  ILE486     -0.2864
     95  CB        36.3410   57.8000   15.4180 C.3   486  ILE486      0.0276
     96  CG1       35.0470   58.5880   15.7070 C.3   486  ILE486      0.0022
     97  CG2       37.4480   58.1820   16.3960 C.3   486  ILE486      0.0022
     98  CD1       34.9480   59.9950   15.0570 C.3   486  ILE486      0.0001
     99  N         39.7190   59.0710   10.8900 N.3   489  TYR489     -0.1241
    100  CA        40.5070   60.1760   11.4510 C.3   489  TYR489      0.1605
    101  C         41.8300   59.7450   12.0750 C.2   489  TYR489      0.2264
    102  O         42.8310   60.4450   11.9360 O.2   489  TYR489     -0.2867
    103  CB        39.6840   61.0240   12.4290 C.3   489  TYR489      0.0534
    104  CG        38.8620   62.0710   11.7270 C.ar  489  TYR489     -0.0201
    105  CD1       39.4680   63.2120   11.1920 C.ar  489  TYR489     -0.0009
    106  CD2       37.4800   61.9200   11.5770 C.ar  489  TYR489     -0.0009
    107  CE1       38.7230   64.1850   10.5290 C.ar  489  TYR489      0.0417
    108  CE2       36.7190   62.8890   10.9170 C.ar  489  TYR489      0.0417
    109  CZ        37.3500   64.0200   10.3940 C.ar  489  TYR489      0.1957
    110  OH        36.6100   64.9940    9.7440 O.3   489  TYR489     -0.2866
@<TRIPOS>BOND
     1    16    15    2
     2    15    14    1
     3    59    58    2
     4    14    13    1
     5    14    17    1
     6    58    57    1
     7     4     3    2
     8    17    18    1
     9     1     2    1
    10     2     3    1
    11     2     5    1
    12    57    60    1
    13    57    56    1
    14    60    61    1
    15     7     9   ar
    16     7     6   ar
    17     9    11   ar
    18    18    19   ar
    19    18    20   ar
    20    48    47    2
    21     5     6    1
    22    56    47   am
    23     6     8   ar
    24    62    61   ar
    25    62    64   ar
    26    61    63   ar
    27    19    21   ar
    28    20    22   ar
    29    47    46    1
    30    28    27    2
    31    11    12    1
    32    11    10   ar
    33    27    26    1
    34    64    65   ar
    35     8    10   ar
    36    63    65   ar
    37    21    23   ar
    38    46    45    1
    39    46    49    1
    40    22    23   ar
    41    23    24    1
    42    26    25    1
    43    26    29    1
    44    51    50    1
    45    51    52    1
    46    50    49    1
    47    29    30    1
    48    32    30   ar
    49    30    31   ar
    50    52    53    2
    51    44    43    2
    52    89    88    1
    53    53    54    1
    54    53    55    1
    55    43    42    1
    56   110   109    1
    57   109   107   ar
    58   109   108   ar
    59   107   105   ar
    60    88    90    1
    61    88    87    1
    62    84    87    1
    63    84    83    1
    64    84    85    1
    65    99   100    1
    66   108   106   ar
    67    42    41    1
    68   105   104   ar
    69    86    85    2
    70    41    35   am
    71   100   101    1
    72   100   103    1
    73   106   104   ar
    74   104   103    1
    75    85    91   am
    76   102   101    2
    77    35    34    1
    78    35    36    2
    79    34    33    1
    80    34    37    1
    81    40    38    1
    82    71    70    1
    83    91    92    1
    84    39    37    1
    85    37    38    1
    86    93    94    2
    87    93    92    1
    88    70    67    1
    89    92    95    1
    90    67    66    1
    91    67    68    1
    92    98    96    1
    93    95    96    1
    94    95    97    1
    95    68    69    2
    96    76    73    1
    97    76    77    1
    98    73    72    1
    99    73    74    1
   100    74    75    2
   101    77    79   ar
   102    77    78   ar
   103    79    81   ar
   104    81    82   ar
   105    78    80   ar
   106    82    80   ar
