@<TRIPOS>MOLECULE
tmp/2ihuB00.pdb
 73 68 0 0 0
SMALL
GASTEIGER

@<TRIPOS>ATOM
      1  N         34.4470   58.4850   24.7510 N.3    23  VAL23      -0.1231
      2  CA        34.1510   58.2770   23.3510 C.3    23  VAL23       0.1692
      3  C         34.9780   59.3070   22.5730 C.2    23  VAL23       0.2592
      4  O         34.9100   60.5100   22.8550 O.2    23  VAL23      -0.2718
      5  CB        32.6500   58.4660   23.0560 C.3    23  VAL23       0.0266
      6  CG1       32.3570   58.2250   21.5740 C.3    23  VAL23       0.0020
      7  CG2       31.8040   57.5610   23.9380 C.3    23  VAL23       0.0020
      8  N         35.7690   58.8290   21.6130 N.am   24  VAL24      -0.1966
      9  CA        36.6310   59.7150   20.8090 C.3    24  VAL24       0.1727
     10  C         35.9330   60.1470   19.5240 C.2    24  VAL24       0.2617
     11  O         35.2390   59.3490   18.8820 O.2    24  VAL24      -0.2715
     12  CB        38.0030   59.0650   20.4580 C.3    24  VAL24       0.0290
     13  CG1       38.9790   60.1160   19.9170 C.3    24  VAL24       0.0023
     14  CG2       38.6000   58.3990   21.6760 C.3    24  VAL24       0.0023
     15  N         36.1130   61.4180   19.1740 N.am   25  GLY25      -0.1940
     16  CA        35.6150   61.9660   17.9160 C.3    25  GLY25       0.2014
     17  C         36.7660   62.3120   16.9790 C.2    25  GLY25       0.2638
     18  O         37.8500   61.7230   17.0640 O.2    25  GLY25      -0.2714
     19  N         36.5340   63.2850   16.1040 N.am   26  ARG26      -0.1977
     20  CA        37.4860   63.6410   15.0600 C.3    26  ARG26       0.1597
     21  C         38.8570   64.0730   15.5890 C.2    26  ARG26       0.2287
     22  O         39.8300   64.1170   14.8290 O.2    26  ARG26      -0.2864
     23  CB        36.8910   64.6970   14.1230 C.3    26  ARG26       0.0334
     24  CG        36.8500   66.1020   14.6780 C.3    26  ARG26       0.0492
     25  CD        36.4370   67.0550   13.5750 C.3    26  ARG26       0.2205
     26  NE        36.3250   68.4490   14.0040 N.pl3  26  ARG26      -0.0865
     27  CZ        37.3230   69.3310   13.9980 C.cat  26  ARG26       0.5346
     28  NH1       38.5480   68.9700   13.6240 N.pl3  26  ARG26       0.1354
     29  NH2       37.0940   70.5860   14.3770 N.pl3  26  ARG26       0.1354
     30  N         28.9210   58.8940   26.5330 N.3    47  GLU47      -0.1245
     31  CA        29.8730   59.6430   27.3620 C.3    47  GLU47       0.1567
     32  C         29.4890   59.6960   28.8520 C.2    47  GLU47       0.2260
     33  O         30.3620   59.7800   29.7160 O.2    47  GLU47      -0.2867
     34  CB        30.0400   61.0680   26.8190 C.3    47  GLU47       0.0388
     35  CG        30.7350   61.1670   25.4490 C.3    47  GLU47       0.1160
     36  CD        29.7930   61.0210   24.2530 C.2    47  GLU47       0.3649
     37  OE1       28.5910   60.6900   24.4200 O.co2  47  GLU47      -0.2457
     38  OE2       30.2830   61.2290   23.1210 O.co2  47  GLU47      -0.2457
     39  N         34.3720   64.1690   22.7550 N.3    70  THR70      -0.1218
     40  CA        34.6330   65.0620   21.6330 C.3    70  THR70       0.1862
     41  C         34.0130   66.4550   21.8520 C.2    70  THR70       0.2287
     42  O         33.4340   66.7420   22.9040 O.2    70  THR70      -0.2866
     43  CB        34.1910   64.4370   20.2930 C.3    70  THR70       0.1770
     44  OG1       34.7520   65.1880   19.2050 O.3    70  THR70      -0.2211
     45  CG2       32.6660   64.3980   20.1750 C.3    70  THR70       0.0375
     46  N         28.4720   68.1580   21.2510 N.3    73  PRO73      -0.2102
     47  CA        27.5670   67.1990   21.9070 C.3    73  PRO73       0.1504
     48  C         28.2940   66.0940   22.6780 C.2    73  PRO73       0.2576
     49  O         27.6960   65.4540   23.5520 O.2    73  PRO73      -0.2718
     50  CB        26.7840   66.5970   20.7370 C.3    73  PRO73       0.0282
     51  CG        27.6870   66.7710   19.5510 C.3    73  PRO73       0.0208
     52  CD        28.3790   68.0780   19.7780 C.3    73  PRO73       0.0893
     53  N         29.5590   65.8450   22.3460 N.am   74  GLY74      -0.1957
     54  CA        30.3760   64.9530   23.1650 C.3    74  GLY74       0.1869
     55  C         30.4790   65.5360   24.5690 C.2    74  GLY74       0.2309
     56  O         30.1400   64.8850   25.5600 O.2    74  GLY74      -0.2863
     57  N         27.1190   65.6230   26.4410 N.3    77  ASN77      -0.1240
     58  CA        26.8490   64.2700   26.9490 C.3    77  ASN77       0.1653
     59  C         27.6800   63.9280   28.1850 C.2    77  ASN77       0.2266
     60  O         27.1770   63.3370   29.1420 O.2    77  ASN77      -0.2867
     61  CB        27.0740   63.2160   25.8620 C.3    77  ASN77       0.1155
     62  CG        25.9050   63.0980   24.9210 C.2    77  ASN77       0.2627
     63  OD1       24.8720   63.7750   25.0780 O.2    77  ASN77      -0.2716
     64  ND2       26.0430   62.2180   23.9380 N.am   77  ASN77      -0.0877
     65  N         29.7630   72.1560   15.3100 N.3   111  GLN111     -0.1245
     66  CA        30.0280   71.4340   16.5700 C.3   111  GLN111      0.1566
     67  C         30.7250   72.2710   17.6460 C.2   111  GLN111      0.2260
     68  O         31.2670   71.7280   18.6100 O.2   111  GLN111     -0.2867
     69  CB        30.8070   70.1290   16.3250 C.3   111  GLN111      0.0367
     70  CG        30.0390   69.0370   15.5860 C.3   111  GLN111      0.0905
     71  CD        30.7350   67.6800   15.6640 C.2   111  GLN111      0.2608
     72  OE1       31.8960   67.5400   15.2640 O.2   111  GLN111     -0.2717
     73  NE2       30.0340   66.6800   16.1920 N.am  111  GLN111     -0.0878
@<TRIPOS>BOND
     1    25    26    1
     2    25    24    1
     3    28    27    1
     4    27    26    2
     5    27    29    1
     6    23    24    1
     7    23    20    1
     8    22    21    2
     9    20    21    1
    10    20    19    1
    11    72    71    2
    12    65    66    1
    13    70    71    1
    14    70    69    1
    15    71    73   am
    16    19    17   am
    17    69    66    1
    18    66    67    1
    19    17    18    2
    20    17    16    1
    21    67    68    2
    22    16    15    1
    23    11    10    2
    24    15    10   am
    25    44    43    1
    26    10     9    1
    27    51    52    1
    28    51    50    1
    29    52    46    1
    30    13    12    1
    31    45    43    1
    32    43    40    1
    33    12     9    1
    34    12    14    1
    35    50    47    1
    36     9     8    1
    37    46    47    1
    38     6     5    1
    39     8     3   am
    40    40    41    1
    41    40    39    1
    42    41    42    2
    43    47    48    1
    44    53    48   am
    45    53    54    1
    46     3     4    2
    47     3     2    1
    48    48    49    2
    49     5     2    1
    50     5     7    1
    51    38    36   ar
    52    54    55    1
    53     2     1    1
    54    64    62   am
    55    36    37   ar
    56    36    35    1
    57    55    56    2
    58    62    63    2
    59    62    61    1
    60    35    34    1
    61    61    58    1
    62    57    58    1
    63    30    31    1
    64    34    31    1
    65    58    59    1
    66    31    32    1
    67    59    60    2
    68    32    33    2
