@<TRIPOS>MOLECULE
tmp/2ihvD02.pdb
 123 115 0 0 0
SMALL
GASTEIGER

@<TRIPOS>ATOM
      1  N         60.4080   96.0830   41.3720 N.3   260  GLY260     -0.1210
      2  CA        61.0640   95.8120   40.0870 C.3   260  GLY260      0.1956
      3  C         61.6860   97.0570   39.4680 C.2   260  GLY260      0.2611
      4  O         62.4770   96.9660   38.5270 O.2   260  GLY260     -0.2717
      5  N         61.3210   98.2160   40.0180 N.am  261  TYR261     -0.1976
      6  CA        61.7780   99.5270   39.5590 C.3   261  TYR261      0.1639
      7  C         63.0430   99.9900   40.2900 C.2   261  TYR261      0.2290
      8  O         63.5860  101.0590   39.9770 O.2   261  TYR261     -0.2864
      9  CB        60.6850  100.5710   39.8010 C.3   261  TYR261      0.0560
     10  CG        59.4300  100.4090   38.9740 C.ar  261  TYR261     -0.0198
     11  CD1       58.4090   99.5390   39.3800 C.ar  261  TYR261     -0.0009
     12  CD2       59.2490  101.1380   37.8000 C.ar  261  TYR261     -0.0009
     13  CE1       57.2500   99.3840   38.6290 C.ar  261  TYR261      0.0417
     14  CE2       58.0910  100.9980   37.0390 C.ar  261  TYR261      0.0417
     15  CZ        57.0930  100.1220   37.4630 C.ar  261  TYR261      0.1957
     16  OH        55.9500   99.9820   36.7270 O.3   261  TYR261     -0.2866
     17  N         53.3850   91.3750   43.3150 N.3   291  ASP291     -0.1239
     18  CA        54.3580   91.8130   42.2930 C.3   291  ASP291      0.1674
     19  C         55.8340   91.6360   42.6930 C.2   291  ASP291      0.2266
     20  O         56.7070   92.2990   42.1520 O.2   291  ASP291     -0.2867
     21  CB        54.0660   93.2570   41.8230 C.3   291  ASP291      0.1410
     22  CG        54.6570   93.5700   40.4380 C.2   291  ASP291      0.3668
     23  OD1       55.0150   92.6300   39.7000 O.co2 291  ASP291     -0.2456
     24  OD2       54.7630   94.7680   40.0790 O.co2 291  ASP291     -0.2456
     25  N         58.1980   88.9620   41.9650 N.3   293  ARG293     -0.1245
     26  CA        58.1410   87.8440   41.0270 C.3   293  ARG293      0.1563
     27  C         59.4040   86.9860   41.1380 C.2   293  ARG293      0.2260
     28  O         60.4460   87.5040   41.4910 O.2   293  ARG293     -0.2867
     29  CB        57.9620   88.3790   39.6020 C.3   293  ARG293      0.0307
     30  CG        56.6840   89.2040   39.4200 C.3   293  ARG293      0.0489
     31  CD        56.5110   89.7530   38.0030 C.3   293  ARG293      0.2205
     32  NE        55.3130   90.5920   37.8980 N.pl3 293  ARG293     -0.0865
     33  CZ        54.2650   90.3580   37.0970 C.cat 293  ARG293      0.5346
     34  NH1       54.2350   89.3040   36.2920 N.pl3 293  ARG293      0.1354
     35  NH2       53.2420   91.2000   37.0910 N.pl3 293  ARG293      0.1354
     36  N         62.7680   88.2500   39.8500 N.3   296  MET296     -0.1245
     37  CA        63.4530   89.2830   40.6340 C.3   296  MET296      0.1570
     38  C         64.4940   88.7450   41.6290 C.2   296  MET296      0.2261
     39  O         65.4990   89.3990   41.8860 O.2   296  MET296     -0.2867
     40  CB        62.4430   90.1800   41.3550 C.3   296  MET296      0.0387
     41  CG        61.6190   91.0480   40.4080 C.3   296  MET296      0.0595
     42  SD        60.2390   91.7810   41.2980 S.3   296  MET296     -0.1393
     43  CE        59.2670   92.4630   39.9340 C.3   296  MET296      0.0692
     44  N         49.2840  105.7900   43.7680 N.3   400  ILE400     -0.1231
     45  CA        49.9710  105.0080   42.7370 C.3   400  ILE400      0.1692
     46  C         50.5860  105.9450   41.6930 C.2   400  ILE400      0.2592
     47  O         49.9660  106.9330   41.3070 O.2   400  ILE400     -0.2718
     48  CB        48.9830  104.0410   42.0410 C.3   400  ILE400      0.0266
     49  CG1       48.0790  103.3200   43.0580 C.3   400  ILE400      0.0019
     50  CG2       49.7110  103.0880   41.0990 C.3   400  ILE400      0.0020
     51  CD1       48.7910  102.5130   44.1570 C.3   400  ILE400      0.0001
     52  N         51.7860  105.6080   41.2290 N.am  401  GLY401     -0.1957
     53  CA        52.5590  106.4080   40.2610 C.3   401  GLY401      0.1869
     54  C         54.0230  106.0050   40.3900 C.2   401  GLY401      0.2309
     55  O         54.3350  105.0580   41.1190 O.2   401  GLY401     -0.2863
     56  N         55.5060  106.2100   43.8990 N.3   404  ARG404     -0.1231
     57  CA        55.1250  105.1160   44.8150 C.3   404  ARG404      0.1694
     58  C         56.2900  104.1590   45.0810 C.2   404  ARG404      0.2592
     59  O         56.4620  103.6670   46.2050 O.2   404  ARG404     -0.2718
     60  CB        53.9010  104.3590   44.2930 C.3   404  ARG404      0.0321
     61  CG        53.3520  103.2830   45.2280 C.3   404  ARG404      0.0489
     62  CD        53.9160  101.8800   44.8900 C.3   404  ARG404      0.2205
     63  NE        53.2830  101.2810   43.7070 N.pl3 404  ARG404     -0.0865
     64  CZ        52.1510  100.5770   43.7200 C.cat 404  ARG404      0.5346
     65  NH1       51.4840  100.3770   44.8430 N.pl3 404  ARG404      0.1354
     66  NH2       51.6760  100.0640   42.5990 N.pl3 404  ARG404      0.1354
     67  N         57.0940  103.9250   44.0460 N.am  405  HIS405     -0.1976
     68  CA        58.2010  102.9970   44.1170 C.3   405  HIS405      0.1656
     69  C         59.3900  103.5950   44.8810 C.2   405  HIS405      0.2291
     70  O         60.1910  102.8620   45.4680 O.2   405  HIS405     -0.2864
     71  CB        58.5500  102.4960   42.7080 C.3   405  HIS405      0.0771
     72  CG        57.4170  101.7630   42.0620 C.ar  405  HIS405      0.0820
     73  ND1       57.0920  100.4620   42.3920 N.ar  405  HIS405     -0.2267
     74  CD2       56.4810  102.1700   41.1700 C.ar  405  HIS405      0.1154
     75  CE1       56.0260  100.0880   41.7050 C.ar  405  HIS405      0.1986
     76  NE2       55.6300  101.1080   40.9640 N.ar  405  HIS405     -0.2212
     77  N         46.5310   98.3930   42.3480 N.3   426  SER426     -0.1217
     78  CA        47.2350   99.6270   41.9310 C.3   426  SER426      0.1889
     79  C         46.3900  100.6340   41.1290 C.2   426  SER426      0.2288
     80  O         46.8300  101.1490   40.0900 O.2   426  SER426     -0.2866
     81  CB        48.5300   99.2980   41.1710 C.3   426  SER426      0.2089
     82  OG        49.3570   98.4170   41.9070 O.3   426  SER426     -0.2183
     83  N         54.7750  108.0130   35.3860 N.3   485  LEU485     -0.1245
     84  CA        55.0650  106.5850   35.2010 C.3   485  LEU485      0.1561
     85  C         54.7920  106.1360   33.7590 C.2   485  LEU485      0.2260
     86  O         55.5010  105.2820   33.2070 O.2   485  LEU485     -0.2867
     87  CB        54.2100  105.7670   36.1760 C.3   485  LEU485      0.0270
     88  CG        54.4120  104.2490   36.2400 C.3   485  LEU485      0.0019
     89  CD1       55.7170  103.8650   36.9530 C.3   485  LEU485      0.0001
     90  CD2       53.1900  103.5610   36.8880 C.3   485  LEU485      0.0001
     91  N         57.1770  104.5310   30.6610 N.3   489  TYR489     -0.1241
     92  CA        56.7990  103.4390   29.7460 C.3   489  TYR489      0.1605
     93  C         56.8350  103.7860   28.2450 C.2   489  TYR489      0.2264
     94  O         57.2590  102.9550   27.4370 O.2   489  TYR489     -0.2867
     95  CB        55.4540  102.8170   30.1500 C.3   489  TYR489      0.0534
     96  CG        55.5990  101.8350   31.2880 C.ar  489  TYR489     -0.0201
     97  CD1       56.1730  100.5730   31.0750 C.ar  489  TYR489     -0.0009
     98  CD2       55.1870  102.1630   32.5840 C.ar  489  TYR489     -0.0009
     99  CE1       56.3260   99.6610   32.1250 C.ar  489  TYR489      0.0417
    100  CE2       55.3380  101.2530   33.6460 C.ar  489  TYR489      0.0417
    101  CZ        55.9040  100.0060   33.4050 C.ar  489  TYR489      0.1957
    102  OH        56.0470   99.0850   34.4320 O.3   489  TYR489     -0.2866
    103  N         64.4940   94.8260   34.5210 N.3   560  ALA560     -0.1231
    104  CA        63.8290   93.9840   35.5330 C.3   560  ALA560      0.1694
    105  C         62.2760   93.9840   35.4830 C.2   560  ALA560      0.2591
    106  O         61.6160   93.1170   36.0710 O.2   560  ALA560     -0.2718
    107  CB        64.3200   94.3680   36.9370 C.3   560  ALA560      0.0304
    108  N         61.7060   94.9600   34.7860 N.am  561  LEU561     -0.1980
    109  CA        60.2600   95.0530   34.6080 C.3   561  LEU561      0.1596
    110  C         59.6870   94.0620   33.5930 C.2   561  LEU561      0.2287
    111  O         58.4670   93.8650   33.5440 O.2   561  LEU561     -0.2864
    112  CB        59.8660   96.4770   34.2040 C.3   561  LEU561      0.0297
    113  CG        60.1420   97.5730   35.2300 C.3   561  LEU561      0.0022
    114  CD1       59.7590   98.9080   34.6420 C.3   561  LEU561      0.0001
    115  CD2       59.4100   97.2830   36.5510 C.3   561  LEU561      0.0001
    116  N         58.3210   90.9000   31.4880 N.3   563  ILE563     -0.1245
    117  CA        57.4440   89.7860   31.8500 C.3   563  ILE563      0.1561
    118  C         57.3700   88.7670   30.6990 C.2   563  ILE563      0.2260
    119  O         57.3180   89.1560   29.5220 O.2   563  ILE563     -0.2867
    120  CB        56.0220   90.2980   32.2430 C.3   563  ILE563      0.0252
    121  CG1       56.0880   91.0930   33.5630 C.3   563  ILE563      0.0019
    122  CG2       55.0100   89.1350   32.3330 C.3   563  ILE563      0.0019
    123  CD1       54.9390   92.0800   33.7900 C.3   563  ILE563      0.0001
@<TRIPOS>BOND
     1    94    93    2
     2    93    92    1
     3   119   118    2
     4    92    95    1
     5    92    91    1
     6    95    96    1
     7   118   117    1
     8    97    96   ar
     9    97    99   ar
    10    96    98   ar
    11   116   117    1
    12   117   120    1
    13    99   101   ar
    14   120   122    1
    15   120   121    1
    16    98   100   ar
    17    86    85    2
    18   101   100   ar
    19   101   102    1
    20   111   110    2
    21   121   123    1
    22   110   109    1
    23    85    84    1
    24   112   109    1
    25   112   113    1
    26   103   104    1
    27   109   108    1
    28   114   113    1
    29   108   105   am
    30    84    83    1
    31    84    87    1
    32   113   115    1
    33   105   104    1
    34   105   106    2
    35   104   107    1
    36    87    88    1
    37    88    90    1
    38    88    89    1
    39    34    33    1
    40    16    15    1
    41    14    15   ar
    42    14    12   ar
    43    35    33    1
    44    33    32    2
    45    15    13   ar
    46    12    10   ar
    47    32    31    1
    48    31    30    1
    49     4     3    2
    50    13    11   ar
    51    10    11   ar
    52    10     9    1
    53    30    29    1
    54     3     5   am
    55     3     2    1
    56     6     9    1
    57     6     5    1
    58     6     7    1
    59    29    26    1
    60    23    22   ar
    61    36    37    1
    62    43    42    1
    63     8     7    2
    64    24    22   ar
    65     2     1    1
    66    80    79    2
    67    53    54    1
    68    53    52    1
    69    54    55    2
    70    41    42    1
    71    41    40    1
    72    22    21    1
    73    37    40    1
    74    37    38    1
    75    76    74   ar
    76    76    75   ar
    77    26    27    1
    78    26    25    1
    79    50    48    1
    80    79    78    1
    81    27    28    2
    82    74    72   ar
    83    81    82    1
    84    81    78    1
    85    52    46   am
    86    47    46    2
    87    38    39    2
    88    46    45    1
    89    75    73   ar
    90    21    18    1
    91    78    77    1
    92    48    45    1
    93    48    49    1
    94    72    73   ar
    95    72    71    1
    96    20    19    2
    97    18    19    1
    98    18    17    1
    99    66    64    1
   100    71    68    1
   101    45    44    1
   102    49    51    1
   103    63    64    2
   104    63    62    1
   105    64    65    1
   106    56    57    1
   107    67    68    1
   108    67    58   am
   109    68    69    1
   110    60    57    1
   111    60    61    1
   112    57    58    1
   113    69    70    2
   114    62    61    1
   115    58    59    2
