@<TRIPOS>MOLECULE
tmp/2ihvD00.pdb
 73 68 0 0 0
SMALL
GASTEIGER

@<TRIPOS>ATOM
      1  N         27.6470  105.7600   49.0660 N.3    23  VAL23      -0.1231
      2  CA        26.8130  106.8190   48.4990 C.3    23  VAL23       0.1692
      3  C         25.4130  106.2030   48.3640 C.2    23  VAL23       0.2592
      4  O         25.2720  105.1140   47.8090 O.2    23  VAL23      -0.2718
      5  CB        27.3330  107.2550   47.0970 C.3    23  VAL23       0.0266
      6  CG1       26.3800  108.2640   46.4220 C.3    23  VAL23       0.0020
      7  CG2       28.7560  107.8130   47.1840 C.3    23  VAL23       0.0020
      8  N         24.3890  106.8760   48.8870 N.am   24  VAL24      -0.1966
      9  CA        23.0250  106.3260   48.8590 C.3    24  VAL24       0.1727
     10  C         22.2040  106.9330   47.7220 C.2    24  VAL24       0.2617
     11  O         22.2570  108.1460   47.4850 O.2    24  VAL24      -0.2715
     12  CB        22.2800  106.5180   50.2210 C.3    24  VAL24       0.0290
     13  CG1       20.9660  105.7200   50.2470 C.3    24  VAL24       0.0023
     14  CG2       23.1550  106.0740   51.3740 C.3    24  VAL24       0.0023
     15  N         21.4480  106.0820   47.0270 N.am   25  GLY25      -0.1940
     16  CA        20.5360  106.5180   45.9760 C.3    25  GLY25       0.2014
     17  C         19.0790  106.3450   46.3790 C.2    25  GLY25       0.2638
     18  O         18.7350  106.4600   47.5560 O.2    25  GLY25      -0.2714
     19  N         18.2280  106.0390   45.3970 N.am   26  ARG26      -0.1977
     20  CA        16.7830  105.9420   45.6120 C.3    26  ARG26       0.1597
     21  C         16.3000  104.8210   46.5490 C.2    26  ARG26       0.2287
     22  O         15.1520  104.8340   46.9900 O.2    26  ARG26      -0.2864
     23  CB        16.0360  105.9370   44.2740 C.3    26  ARG26       0.0334
     24  CG        15.9630  104.6270   43.5450 C.3    26  ARG26       0.0492
     25  CD        14.9280  104.7790   42.4440 C.3    26  ARG26       0.2205
     26  NE        14.8300  103.6070   41.5820 N.pl3  26  ARG26      -0.0865
     27  CZ        14.0360  102.5680   41.8110 C.cat  26  ARG26       0.5346
     28  NH1       13.2510  102.5270   42.8880 N.pl3  26  ARG26       0.1354
     29  NH2       14.0220  101.5680   40.9530 N.pl3  26  ARG26       0.1354
     30  N         31.8650  106.2850   44.9770 N.3    47  GLU47      -0.1245
     31  CA        31.8030  104.9200   45.5090 C.3    47  GLU47       0.1567
     32  C         33.1690  104.2460   45.6500 C.2    47  GLU47       0.2260
     33  O         33.3740  103.4350   46.5450 O.2    47  GLU47      -0.2867
     34  CB        30.8890  104.0340   44.6420 C.3    47  GLU47       0.0388
     35  CG        29.4060  104.3470   44.7230 C.3    47  GLU47       0.1160
     36  CD        28.9360  105.4550   43.7570 C.2    47  GLU47       0.3649
     37  OE1       29.7750  106.1260   43.1030 O.co2  47  GLU47      -0.2457
     38  OE2       27.7070  105.6690   43.6710 O.co2  47  GLU47      -0.2457
     39  N         24.2480  102.4390   45.1600 N.3    70  THR70      -0.1218
     40  CA        22.9310  102.3540   44.5620 C.3    70  THR70       0.1862
     41  C         22.9320  101.3920   43.3530 C.2    70  THR70       0.2287
     42  O         23.9610  100.7750   43.0370 O.2    70  THR70      -0.2866
     43  CB        22.3770  103.7440   44.1810 C.3    70  THR70       0.1770
     44  OG1       20.9740  103.6140   43.8970 O.3    70  THR70      -0.2211
     45  CG2       23.1110  104.3330   42.9620 C.3    70  THR70       0.0375
     46  N         24.8790  102.2980   37.8860 N.3    73  PRO73      -0.2102
     47  CA        26.1730  103.0250   37.9710 C.3    73  PRO73       0.1504
     48  C         26.7990  103.1350   39.3730 C.2    73  PRO73       0.2576
     49  O         28.0160  103.3080   39.4690 O.2    73  PRO73      -0.2718
     50  CB        25.8360  104.4320   37.4390 C.3    73  PRO73       0.0282
     51  CG        24.3630  104.5720   37.6210 C.3    73  PRO73       0.0208
     52  CD        23.8020  103.1780   37.3790 C.3    73  PRO73       0.0893
     53  N         25.9950  103.0560   40.4350 N.am   74  GLY74      -0.1957
     54  CA        26.5520  102.9800   41.7920 C.3    74  GLY74       0.1869
     55  C         27.3710  101.7010   41.9760 C.2    74  GLY74       0.2309
     56  O         28.5210  101.7210   42.4570 O.2    74  GLY74      -0.2863
     57  N         30.5690  101.8620   39.7710 N.3    77  ASN77      -0.1240
     58  CA        31.5680  102.6940   40.4540 C.3    77  ASN77       0.1653
     59  C         32.2220  101.9510   41.6460 C.2    77  ASN77       0.2266
     60  O         33.4300  102.0760   41.8840 O.2    77  ASN77      -0.2867
     61  CB        30.9530  103.9920   40.9700 C.3    77  ASN77       0.1155
     62  CG        30.7240  105.0440   39.8840 C.2    77  ASN77       0.2627
     63  OD1       31.0940  104.8910   38.7140 O.2    77  ASN77      -0.2716
     64  ND2       30.1160  106.1380   40.2910 N.am   77  ASN77      -0.0877
     65  N         18.2020  102.0640   34.7960 N.3   111  GLN111     -0.1245
     66  CA        19.2870  101.7870   35.7720 C.3   111  GLN111      0.1566
     67  C         19.5120  100.3230   36.1540 C.2   111  GLN111      0.2260
     68  O         20.1760  100.0450   37.1550 O.2   111  GLN111     -0.2867
     69  CB        19.1250  102.6070   37.0630 C.3   111  GLN111      0.0367
     70  CG        19.3750  104.0680   36.8890 C.3   111  GLN111      0.0905
     71  CD        19.4770  104.8030   38.2010 C.2   111  GLN111      0.2608
     72  OE1       18.6140  104.6650   39.0660 O.2   111  GLN111     -0.2717
     73  NE2       20.5310  105.6090   38.3540 N.am  111  GLN111     -0.0878
@<TRIPOS>BOND
     1    65    66    1
     2    66    67    1
     3    66    69    1
     4    67    68    2
     5    70    69    1
     6    70    71    1
     7    52    51    1
     8    52    46    1
     9    50    51    1
    10    50    47    1
    11    46    47    1
    12    47    48    1
    13    71    73   am
    14    71    72    2
    15    63    62    2
    16    48    49    2
    17    48    53   am
    18    57    58    1
    19    62    64   am
    20    62    61    1
    21    53    54    1
    22    58    61    1
    23    58    59    1
    24    29    27    1
    25    26    27    2
    26    26    25    1
    27    59    60    2
    28    54    55    1
    29    27    28    1
    30    55    56    2
    31    25    24    1
    32    45    43    1
    33    42    41    2
    34    37    36   ar
    35    41    40    1
    36    24    23    1
    37    38    36   ar
    38    36    35    1
    39    44    43    1
    40    43    40    1
    41    23    20    1
    42    40    39    1
    43    34    35    1
    44    34    31    1
    45    30    31    1
    46    19    20    1
    47    19    17   am
    48    31    32    1
    49    20    21    1
    50    32    33    2
    51    16    17    1
    52    16    15    1
    53    17    18    2
    54     6     5    1
    55    21    22    2
    56    15    10   am
    57     5     7    1
    58     5     2    1
    59    11    10    2
    60    10     9    1
    61     4     3    2
    62     3     2    1
    63     3     8   am
    64     2     1    1
    65     9     8    1
    66     9    12    1
    67    12    13    1
    68    12    14    1
