@<TRIPOS>MOLECULE
tmp/2ihvD01.pdb
 146 142 0 0 0
SMALL
GASTEIGER

@<TRIPOS>ATOM
      1  N         35.3870   99.0970   41.1820 N.3    80  THR80      -0.1218
      2  CA        36.8290   99.3610   41.2660 C.3    80  THR80       0.1862
      3  C         37.3290   99.1830   42.7120 C.2    80  THR80       0.2287
      4  O         38.4650   98.7500   42.9360 O.2    80  THR80      -0.2866
      5  CB        37.2220  100.7480   40.7110 C.3    80  THR80       0.1770
      6  OG1       36.6470  100.9360   39.4110 O.3    80  THR80      -0.2211
      7  CG2       38.7360  100.8900   40.6120 C.3    80  THR80       0.0375
      8  N         49.2840  105.7900   43.7680 N.3   400  ILE400     -0.1231
      9  CA        49.9710  105.0080   42.7370 C.3   400  ILE400      0.1692
     10  C         50.5860  105.9450   41.6930 C.2   400  ILE400      0.2593
     11  O         49.9660  106.9330   41.3070 O.2   400  ILE400     -0.2718
     12  CB        48.9830  104.0410   42.0410 C.3   400  ILE400      0.0266
     13  CG1       48.0790  103.3200   43.0580 C.3   400  ILE400      0.0019
     14  CG2       49.7110  103.0880   41.0990 C.3   400  ILE400      0.0020
     15  CD1       48.7910  102.5130   44.1570 C.3   400  ILE400      0.0001
     16  N         51.7860  105.6080   41.2290 N.am  401  GLY401     -0.1942
     17  CA        52.5590  106.4080   40.2610 C.3   401  GLY401      0.2014
     18  C         54.0230  106.0050   40.3900 C.2   401  GLY401      0.2639
     19  O         54.3350  105.0580   41.1190 O.2   401  GLY401     -0.2714
     20  N         54.9160  106.7020   39.6830 N.am  402  PHE402     -0.1959
     21  CA        56.3790  106.4900   39.7850 C.3   402  PHE402      0.1771
     22  C         56.8880  106.7850   41.2110 C.2   402  PHE402      0.2619
     23  O         57.7090  106.0430   41.7430 O.2   402  PHE402     -0.2715
     24  CB        57.1350  107.3330   38.7270 C.3   402  PHE402      0.0574
     25  CG        58.5840  106.9150   38.4960 C.ar  402  PHE402     -0.0200
     26  CD1       58.9580  105.5730   38.4410 C.ar  402  PHE402     -0.0042
     27  CD2       59.5690  107.8720   38.2990 C.ar  402  PHE402     -0.0042
     28  CE1       60.2880  105.1960   38.2200 C.ar  402  PHE402     -0.0003
     29  CE2       60.9110  107.5050   38.0690 C.ar  402  PHE402     -0.0003
     30  CZ        61.2650  106.1630   38.0270 C.ar  402  PHE402     -0.0000
     31  N         56.3690  107.8510   41.8270 N.am  403  PHE403     -0.1974
     32  CA        56.7120  108.2450   43.2120 C.3   403  PHE403      0.1639
     33  C         56.4490  107.1010   44.2180 C.2   403  PHE403      0.2290
     34  O         57.0760  107.0520   45.2860 O.2   403  PHE403     -0.2864
     35  CB        55.9090  109.5020   43.6300 C.3   403  PHE403      0.0560
     36  CG        54.4450  109.2270   43.8200 C.ar  403  PHE403     -0.0200
     37  CD1       53.5690  109.2830   42.7320 C.ar  403  PHE403     -0.0042
     38  CD2       53.9550  108.8270   45.0720 C.ar  403  PHE403     -0.0042
     39  CE1       52.2140  108.9560   42.8910 C.ar  403  PHE403     -0.0003
     40  CE2       52.6090  108.5000   45.2500 C.ar  403  PHE403     -0.0003
     41  CZ        51.7290  108.5630   44.1550 C.ar  403  PHE403     -0.0000
     42  N         46.5310   98.3930   42.3480 N.3   426  SER426     -0.1202
     43  CA        47.2350   99.6270   41.9310 C.3   426  SER426      0.2020
     44  C         46.3900  100.6340   41.1290 C.2   426  SER426      0.2619
     45  O         46.8300  101.1490   40.0900 O.2   426  SER426     -0.2717
     46  CB        48.5300   99.2980   41.1710 C.3   426  SER426      0.2103
     47  OG        49.3570   98.4170   41.9070 O.3   426  SER426     -0.2182
     48  N         45.1850  100.9110   41.6180 N.am  427  SER427     -0.1937
     49  CA        44.3360  101.9430   41.0350 C.3   427  SER427      0.2055
     50  C         44.8160  103.3310   41.4960 C.2   427  SER427      0.2643
     51  O         45.0180  103.5500   42.6940 O.2   427  SER427     -0.2714
     52  CB        42.8920  101.7330   41.4740 C.3   427  SER427      0.2130
     53  OG        42.0550  102.7910   40.9980 O.3   427  SER427     -0.2179
     54  N         45.0080  104.2650   40.5680 N.am  428  PHE428     -0.1973
     55  CA        45.2660  105.6310   40.9910 C.3   428  PHE428      0.1639
     56  C         44.0190  106.2220   41.6990 C.2   428  PHE428      0.2290
     57  O         42.8900  105.7190   41.5310 O.2   428  PHE428     -0.2864
     58  CB        45.9020  106.4890   39.8770 C.3   428  PHE428      0.0560
     59  CG        44.9640  106.9010   38.7460 C.ar  428  PHE428     -0.0200
     60  CD1       43.6280  106.5010   38.6970 C.ar  428  PHE428     -0.0042
     61  CD2       45.4560  107.6850   37.7060 C.ar  428  PHE428     -0.0042
     62  CE1       42.7970  106.8900   37.6400 C.ar  428  PHE428     -0.0003
     63  CE2       44.6430  108.0780   36.6570 C.ar  428  PHE428     -0.0003
     64  CZ        43.3070  107.6870   36.6180 C.ar  428  PHE428     -0.0000
     65  N         50.6350  111.6010   43.6640 N.3   452  GLY452     -0.1210
     66  CA        51.0950  112.3520   42.4890 C.3   452  GLY452      0.1956
     67  C         49.9440  113.1730   41.9410 C.2   452  GLY452      0.2612
     68  O         48.7850  112.9280   42.2700 O.2   452  GLY452     -0.2717
     69  N         50.2440  114.1520   41.1000 N.am  453  ASP453     -0.1959
     70  CA        49.1800  114.9950   40.5480 C.3   453  ASP453      0.1840
     71  C         48.1330  114.2270   39.7080 C.2   453  ASP453      0.2623
     72  O         46.9500  114.5520   39.7670 O.2   453  ASP453     -0.2715
     73  CB        49.7590  116.1780   39.7700 C.3   453  ASP453      0.1450
     74  CG        50.5710  115.7500   38.5550 C.2   453  ASP453      0.3671
     75  OD1       51.6350  115.1010   38.7350 O.co2 453  ASP453     -0.2456
     76  OD2       50.1510  116.0860   37.4250 O.co2 453  ASP453     -0.2456
     77  N         48.5630  113.2200   38.9450 N.am  454  GLY454     -0.1940
     78  CA        47.6550  112.4320   38.0830 C.3   454  GLY454      0.2014
     79  C         46.6690  111.5840   38.8730 C.2   454  GLY454      0.2639
     80  O         45.4520  111.6680   38.6680 O.2   454  GLY454     -0.2714
     81  N         47.2050  110.7790   39.7860 N.am  455  GLY455     -0.1954
     82  CA        46.4140  109.9310   40.6560 C.3   455  GLY455      0.1869
     83  C         45.6130  110.6970   41.6840 C.2   455  GLY455      0.2309
     84  O         44.4220  110.4180   41.8780 O.2   455  GLY455     -0.2863
     85  N         52.9310  115.5470   45.1810 N.3   478  VAL478     -0.1245
     86  CA        54.1120  115.7650   44.3400 C.3   478  VAL478      0.1561
     87  C         53.7020  115.9500   42.8710 C.2   478  VAL478      0.2260
     88  O         53.2390  115.0120   42.2140 O.2   478  VAL478     -0.2867
     89  CB        55.2210  114.6810   44.5400 C.3   478  VAL478      0.0252
     90  CG1       55.7080  114.6890   45.9850 C.3   478  VAL478      0.0019
     91  CG2       54.7600  113.2820   44.1370 C.3   478  VAL478      0.0019
     92  N         54.1160  117.1310   38.8960 N.3   480  ASN480     -0.1240
     93  CA        54.9550  117.3360   37.7060 C.3   480  ASN480      0.1653
     94  C         54.1340  117.5790   36.4240 C.2   480  ASN480      0.2266
     95  O         54.6670  117.5210   35.3220 O.2   480  ASN480     -0.2867
     96  CB        56.0360  116.2390   37.5550 C.3   480  ASN480      0.1155
     97  CG        55.5140  114.9220   36.9190 C.2   480  ASN480      0.2627
     98  OD1       54.3790  114.4750   37.1490 O.2   480  ASN480     -0.2716
     99  ND2       56.3770  114.2910   36.1240 N.am  480  ASN480     -0.0877
    100  N         52.0390  115.7940   34.9630 N.3   482  THR482     -0.1203
    101  CA        52.2120  114.6250   34.1030 C.3   482  THR482      0.1994
    102  C         51.8130  113.3410   34.8100 C.2   482  THR482      0.2618
    103  O         52.0210  113.1920   36.0300 O.2   482  THR482     -0.2717
    104  CB        53.7030  114.4690   33.6790 C.3   482  THR482      0.1784
    105  OG1       54.2260  115.7440   33.2780 O.3   482  THR482     -0.2211
    106  CG2       53.8690  113.4860   32.5350 C.3   482  THR482      0.0376
    107  N         51.2510  112.4150   34.0310 N.am  483  ASN483     -0.1960
    108  CA        51.2490  110.9970   34.3850 C.3   483  ASN483      0.1819
    109  C         52.6640  110.4340   34.1570 C.2   483  ASN483      0.2622
    110  O         52.9400  109.8320   33.1150 O.2   483  ASN483     -0.2715
    111  CB        50.2000  110.2280   33.5660 C.3   483  ASN483      0.1195
    112  CG        48.7880  110.4070   34.0990 C.2   483  ASN483      0.2630
    113  OD1       48.5920  110.7880   35.2610 O.2   483  ASN483     -0.2716
    114  ND2       47.7910  110.1210   33.2560 N.am  483  ASN483     -0.0877
    115  N         53.5420  110.6530   35.1420 N.am  484  GLY484     -0.1940
    116  CA        54.9840  110.3940   35.0330 C.3   484  GLY484      0.2014
    117  C         55.4030  108.9730   34.7150 C.2   484  GLY484      0.2639
    118  O         56.2860  108.7450   33.8830 O.2   484  GLY484     -0.2714
    119  N         54.7750  108.0130   35.3860 N.am  485  LEU485     -0.1963
    120  CA        55.0650  106.5850   35.2010 C.3   485  LEU485      0.1728
    121  C         54.7920  106.1360   33.7590 C.2   485  LEU485      0.2616
    122  O         55.5010  105.2820   33.2070 O.2   485  LEU485     -0.2715
    123  CB        54.2100  105.7670   36.1760 C.3   485  LEU485      0.0311
    124  CG        54.4120  104.2490   36.2400 C.3   485  LEU485      0.0022
    125  CD1       55.7170  103.8650   36.9530 C.3   485  LEU485      0.0001
    126  CD2       53.1900  103.5610   36.8880 C.3   485  LEU485      0.0001
    127  N         53.7540  106.7220   33.1710 N.am  486  ILE486     -0.1977
    128  CA        53.3260  106.3990   31.8150 C.3   486  ILE486      0.1596
    129  C         54.2950  107.0220   30.7860 C.2   486  ILE486      0.2287
    130  O         54.6010  106.3970   29.7720 O.2   486  ILE486     -0.2864
    131  CB        51.8280  106.8090   31.5710 C.3   486  ILE486      0.0276
    132  CG1       50.9150  106.3400   32.7230 C.3   486  ILE486      0.0022
    133  CG2       51.3210  106.3110   30.2210 C.3   486  ILE486      0.0022
    134  CD1       51.1520  104.9010   33.2280 C.3   486  ILE486      0.0001
    135  N         61.4100  114.2160   37.5040 N.3   551  TYR551     -0.1241
    136  CA        62.1730  112.9640   37.4090 C.3   551  TYR551      0.1605
    137  C         63.1930  113.0500   36.2830 C.2   551  TYR551      0.2264
    138  O         62.9810  113.7390   35.2750 O.2   551  TYR551     -0.2867
    139  CB        61.2450  111.7750   37.1220 C.3   551  TYR551      0.0534
    140  CG        60.0520  111.6790   38.0370 C.ar  551  TYR551     -0.0201
    141  CD1       60.1890  111.2280   39.3490 C.ar  551  TYR551     -0.0009
    142  CD2       58.7820  112.0330   37.5900 C.ar  551  TYR551     -0.0009
    143  CE1       59.0920  111.1340   40.1890 C.ar  551  TYR551      0.0417
    144  CE2       57.6800  111.9490   38.4270 C.ar  551  TYR551      0.0417
    145  CZ        57.8410  111.5010   39.7260 C.ar  551  TYR551      0.1957
    146  OH        56.7480  111.4170   40.5620 O.3   551  TYR551     -0.2866
@<TRIPOS>BOND
     1   130   129    2
     2   133   131    1
     3   129   128    1
     4   131   128    1
     5   131   132    1
     6   128   127    1
     7   106   104    1
     8   132   134    1
     9   110   109    2
    10   127   121   am
    11   122   121    2
    12   114   112   am
    13   105   104    1
    14   111   112    1
    15   111   108    1
    16   104   101    1
    17   121   120    1
    18   118   117    2
    19   107   108    1
    20   107   102   am
    21   112   113    2
    22   101   102    1
    23   101   100    1
    24   109   108    1
    25   109   115   am
    26   117   116    1
    27   117   119   am
    28   102   103    2
    29   116   115    1
    30   120   119    1
    31   120   123    1
    32   138   137    2
    33    95    94    2
    34    99    97   am
    35   123   124    1
    36   124   126    1
    37   124   125    1
    38   137   136    1
    39    94    93    1
    40    64    63   ar
    41    64    62   ar
    42    63    61   ar
    43    97    98    2
    44    97    96    1
    45   139   136    1
    46   139   140    1
    47   136   135    1
    48    76    74   ar
    49    96    93    1
    50   142   140   ar
    51   142   144   ar
    52    62    60   ar
    53    61    59   ar
    54    93    92    1
    55    30    29   ar
    56    30    28   ar
    57   140   141   ar
    58    29    27   ar
    59    78    79    1
    60    78    77    1
    61    28    26   ar
    62    27    25   ar
    63   144   145   ar
    64    26    25   ar
    65    25    24    1
    66    74    75   ar
    67    74    73    1
    68    80    79    2
    69    60    59   ar
    70    24    21    1
    71    59    58    1
    72    79    81   am
    73    77    71   am
    74   141   143   ar
    75     6     5    1
    76    20    21    1
    77    20    18   am
    78    71    72    2
    79    71    70    1
    80   145   143   ar
    81   145   146    1
    82    73    70    1
    83    21    22    1
    84    81    82    1
    85    58    55    1
    86    45    44    2
    87    17    18    1
    88    17    16    1
    89    18    19    2
    90    70    69    1
    91    54    55    1
    92    54    50   am
    93     7     5    1
    94    82    83    1
    95     5     2    1
    96    55    56    1
    97    53    52    1
    98    49    52    1
    99    49    50    1
   100    49    48    1
   101    14    12    1
   102    69    67   am
   103    44    48   am
   104    44    43    1
   105    46    47    1
   106    46    43    1
   107     1     2    1
   108    22    23    2
   109    22    31   am
   110    16    10   am
   111     2     3    1
   112    11    10    2
   113    50    51    2
   114    57    56    2
   115    83    84    2
   116    10     9    1
   117    31    32    1
   118    43    42    1
   119    67    68    2
   120    67    66    1
   121    12     9    1
   122    12    13    1
   123    88    87    2
   124    66    65    1
   125     3     4    2
   126    37    39   ar
   127    37    36   ar
   128     9     8    1
   129    87    86    1
   130    39    41   ar
   131    13    15    1
   132    32    35    1
   133    32    33    1
   134    35    36    1
   135    36    38   ar
   136    91    89    1
   137    41    40   ar
   138    33    34    2
   139    86    89    1
   140    86    85    1
   141    89    90    1
   142    38    40   ar
