@<TRIPOS>MOLECULE
tmp/2ii3F01.pdb
 164 154 0 0 0
SMALL
GASTEIGER

@<TRIPOS>ATOM
      1  N         88.8210  -11.3560   -2.9040 N.3    43  ARG43      -0.1245
      2  CA        89.5430  -10.4340   -3.7880 C.3    43  ARG43       0.1563
      3  C         89.9230  -11.0600   -5.1250 C.2    43  ARG43       0.2260
      4  O         89.7930  -10.4020   -6.1720 O.2    43  ARG43      -0.2867
      5  CB        90.7990   -9.8970   -3.0840 C.3    43  ARG43       0.0307
      6  CG        91.5380   -8.8050   -3.8550 C.3    43  ARG43       0.0489
      7  CD        92.8940   -8.5850   -3.2670 C.3    43  ARG43       0.2205
      8  NE        93.7480   -7.8500   -4.1960 N.pl3  43  ARG43      -0.0865
      9  CZ        94.7910   -8.3620   -4.8360 C.cat  43  ARG43       0.5346
     10  NH1       95.1510   -9.6180   -4.6470 N.pl3  43  ARG43       0.1354
     11  NH2       95.4800   -7.5960   -5.6660 N.pl3  43  ARG43       0.1354
     12  N         88.5790   -9.2360   -8.4110 N.3    47  LYS47      -0.1245
     13  CA        89.5780   -8.6250   -9.3390 C.3    47  LYS47       0.1561
     14  C         89.2010   -8.4640  -10.8490 C.2    47  LYS47       0.2260
     15  O         89.4150   -7.3970  -11.4100 O.2    47  LYS47      -0.2867
     16  CB        90.9490   -9.3050   -9.1970 C.3    47  LYS47       0.0271
     17  CG        91.7770   -8.7950   -8.0680 C.3    47  LYS47       0.0035
     18  CD        93.2660   -8.8800   -8.4060 C.3    47  LYS47       0.0206
     19  CE        93.8560  -10.2600   -8.1400 C.3    47  LYS47       0.1093
     20  NZ        95.2640  -10.3840   -8.6570 N.3    47  LYS47      -0.1314
     21  N         92.3660   -1.0880  -10.2190 N.3    56  LYS56      -0.1245
     22  CA        93.1540   -2.0420   -9.4220 C.3    56  LYS56       0.1561
     23  C         92.5580   -2.1060   -8.0220 C.2    56  LYS56       0.2260
     24  O         92.5310   -1.1040   -7.2700 O.2    56  LYS56      -0.2867
     25  CB        94.6500   -1.6630   -9.3510 C.3    56  LYS56       0.0271
     26  CG        95.2810   -1.3120  -10.7160 C.3    56  LYS56       0.0035
     27  CD        96.8170   -1.2150  -10.6480 C.3    56  LYS56       0.0206
     28  CE        97.3900   -1.0390  -12.0530 C.3    56  LYS56       0.1093
     29  NZ        98.8820   -1.0370  -12.0590 N.3    56  LYS56      -0.1314
     30  N         93.0350   -3.6230   -4.5700 N.3    58  SER58      -0.1202
     31  CA        93.9630   -4.2370   -3.6560 C.3    58  SER58       0.2020
     32  C         93.1720   -4.5970   -2.3880 C.2    58  SER58       0.2619
     33  O         91.9540   -4.6740   -2.4300 O.2    58  SER58      -0.2717
     34  CB        95.0960   -3.2750   -3.3740 C.3    58  SER58       0.2103
     35  OG        94.6130   -2.1870   -2.6070 O.3    58  SER58      -0.2182
     36  N         93.8490   -4.8270   -1.2830 N.am   59  PHE59      -0.1961
     37  CA        93.2010   -5.1720   -0.0230 C.3    59  PHE59       0.1771
     38  C         92.7190   -3.9180    0.7110 C.2    59  PHE59       0.2619
     39  O         91.7940   -3.9780    1.5060 O.2    59  PHE59      -0.2715
     40  CB        94.1410   -6.0030    0.8630 C.3    59  PHE59       0.0574
     41  CG        94.3640   -7.4310    0.3640 C.ar   59  PHE59      -0.0200
     42  CD1       93.4300   -8.4610    0.6720 C.ar   59  PHE59      -0.0042
     43  CD2       95.4720   -7.7340   -0.4240 C.ar   59  PHE59      -0.0042
     44  CE1       93.6240   -9.8010    0.1980 C.ar   59  PHE59      -0.0003
     45  CE2       95.7100   -9.0480   -0.9030 C.ar   59  PHE59      -0.0003
     46  CZ        94.7770  -10.0990   -0.6040 C.ar   59  PHE59      -0.0000
     47  N         93.3560   -2.7840    0.4250 N.am   60  MET60      -0.1977
     48  CA        93.1000   -1.5040    1.1320 C.3    60  MET60       0.1605
     49  C         91.6260   -1.0300    1.1600 C.2    60  MET60       0.2287
     50  O         91.1500   -0.6670    2.2250 O.2    60  MET60      -0.2864
     51  CB        94.0290   -0.3920    0.5800 C.3    60  MET60       0.0413
     52  CG        95.4720   -0.4210    1.1150 C.3    60  MET60       0.0598
     53  SD        95.5470   -0.3960    2.9290 S.3    60  MET60      -0.1393
     54  CE        95.0070    1.2600    3.2650 C.3    60  MET60       0.0692
     55  N         90.1170   -2.9900    3.8320 N.3    63  PHE63      -0.1241
     56  CA        90.6130   -2.5930    5.1520 C.3    63  PHE63       0.1605
     57  C         89.9810   -1.2550    5.5270 C.2    63  PHE63       0.2264
     58  O         89.6090   -1.0600    6.6650 O.2    63  PHE63      -0.2867
     59  CB        92.1590   -2.4300    5.1770 C.3    63  PHE63       0.0534
     60  CG        92.9500   -3.6870    4.8370 C.ar   63  PHE63      -0.0203
     61  CD1       92.4250   -4.9630    5.0300 C.ar   63  PHE63      -0.0042
     62  CD2       94.2410   -3.5630    4.3280 C.ar   63  PHE63      -0.0042
     63  CE1       93.1880   -6.1200    4.7370 C.ar   63  PHE63      -0.0003
     64  CE2       95.0100   -4.6650    4.0180 C.ar   63  PHE63      -0.0003
     65  CZ        94.4920   -5.9680    4.2270 C.ar   63  PHE63      -0.0000
     66  N         95.8990    7.5610    4.1700 N.3    98  ILE98      -0.1231
     67  CA        96.7360    6.4730    3.6690 C.3    98  ILE98       0.1692
     68  C         98.1490    7.0050    3.7270 C.2    98  ILE98       0.2592
     69  O         98.5240    7.8440    2.8970 O.2    98  ILE98      -0.2718
     70  CB        96.4750    6.1280    2.1720 C.3    98  ILE98       0.0266
     71  CG1       94.9820    6.0360    1.8080 C.3    98  ILE98       0.0019
     72  CG2       97.2330    4.8930    1.7950 C.3    98  ILE98       0.0020
     73  CD1       94.1390    5.2150    2.7350 C.3    98  ILE98       0.0001
     74  N         98.9150    6.5350    4.7200 N.am   99  ALA99      -0.1966
     75  CA       100.3230    6.9420    4.8450 C.3    99  ALA99       0.1728
     76  C        101.1110    6.3640    3.6990 C.2    99  ALA99       0.2616
     77  O        101.1980    5.1560    3.5850 O.2    99  ALA99      -0.2715
     78  CB       100.9250    6.4860    6.1780 C.3    99  ALA99       0.0334
     79  N        101.6770    7.2350    2.8660 N.am  100  MET100     -0.1963
     80  CA       102.6080    6.8620    1.7830 C.3   100  MET100      0.1736
     81  C        103.9570    7.5990    2.0130 C.2   100  MET100      0.2616
     82  O        104.0170    8.5560    2.8130 O.2   100  MET100     -0.2715
     83  CB       102.0940    7.3500    0.4360 C.3   100  MET100      0.0427
     84  CG       100.7550    6.8210   -0.0270 C.3   100  MET100      0.0599
     85  SD       100.1860    7.9030   -1.3580 S.3   100  MET100     -0.1393
     86  CE        98.5350    7.2050   -1.5690 C.3   100  MET100      0.0692
     87  N        105.0020    7.1760    1.2940 N.am  101  ASP101     -0.1971
     88  CA       106.2940    7.8410    1.3140 C.3   101  ASP101      0.1709
     89  C        106.6250    8.1300   -0.1150 C.2   101  ASP101      0.2293
     90  O        106.5490    7.2590   -0.9660 O.2   101  ASP101     -0.2864
     91  CB       107.4190    6.9710    1.8970 C.3   101  ASP101      0.1436
     92  CG       107.2940    6.7950    3.3760 C.2   101  ASP101      0.3671
     93  OD1      107.0360    7.8060    4.0490 O.co2 101  ASP101     -0.2456
     94  OD2      107.4370    5.6590    3.8690 O.co2 101  ASP101     -0.2456
     95  N         91.3760    5.5900   -4.1080 N.3   126  LEU126     -0.1245
     96  CA        92.7250    5.1300   -3.7620 C.3   126  LEU126      0.1561
     97  C         93.6380    5.1650   -4.9740 C.2   126  LEU126      0.2260
     98  O         94.7660    5.5940   -4.8860 O.2   126  LEU126     -0.2867
     99  CB        92.6760    3.6940   -3.2700 C.3   126  LEU126      0.0270
    100  CG        92.6150    3.3850   -1.8080 C.3   126  LEU126      0.0019
    101  CD1       93.2120    2.0070   -1.6170 C.3   126  LEU126      0.0001
    102  CD2       93.4660    4.4500   -1.1180 C.3   126  LEU126      0.0001
    103  N         96.9680    7.5130   -5.3050 N.3   130  GLN130     -0.1245
    104  CA        98.2750    6.9020   -5.6330 C.3   130  GLN130      0.1566
    105  C         98.9170    7.5840   -6.8470 C.2   130  GLN130      0.2260
    106  O        100.0800    8.0010   -6.7930 O.2   130  GLN130     -0.2867
    107  CB        98.1710    5.3860   -5.8690 C.3   130  GLN130      0.0367
    108  CG        98.0460    4.5520   -4.5620 C.3   130  GLN130      0.0905
    109  CD        97.4630    3.1290   -4.7420 C.2   130  GLN130      0.2608
    110  OE1       96.6020    2.7040   -3.9590 O.2   130  GLN130     -0.2717
    111  NE2       97.9320    2.3960   -5.7590 N.am  130  GLN130     -0.0878
    112  N        100.0260    0.9060    5.2550 N.3   152  ASN152     -0.1240
    113  CA       100.1690   -0.4380    4.7310 C.3   152  ASN152      0.1653
    114  C        101.6550   -0.7470    4.4900 C.2   152  ASN152      0.2266
    115  O        102.1110   -0.8900    3.3620 O.2   152  ASN152     -0.2867
    116  CB        99.3020   -0.6350    3.4780 C.3   152  ASN152      0.1155
    117  CG        99.3950   -2.0430    2.9360 C.2   152  ASN152      0.2627
    118  OD1       99.7150   -2.9680    3.6720 O.2   152  ASN152     -0.2716
    119  ND2       99.1940   -2.2040    1.6350 N.am  152  ASN152     -0.0877
    120  N        103.1000   -3.4160    4.9510 N.3   154  GLY154     -0.1210
    121  CA       103.0930   -4.6870    4.2970 C.3   154  GLY154      0.1956
    122  C        103.1350   -4.6790    2.7860 C.2   154  GLY154      0.2613
    123  O        103.4740   -5.6940    2.1800 O.2   154  GLY154     -0.2717
    124  N        102.8370   -3.5380    2.1590 N.am  155  SER155     -0.1938
    125  CA       103.1290   -3.4150    0.7390 C.3   155  SER155      0.2055
    126  C        104.6360   -3.5420    0.5150 C.2   155  SER155      0.2642
    127  O        105.0550   -3.8320   -0.5750 O.2   155  SER155     -0.2714
    128  CB       102.5640   -2.1280    0.1150 C.3   155  SER155      0.2130
    129  OG       103.1570   -0.9470    0.6340 O.3   155  SER155     -0.2179
    130  N        105.4620   -3.3230    1.5480 N.am  156  ILE156     -0.1977
    131  CA       106.9190   -3.5360    1.3870 C.3   156  ILE156      0.1596
    132  C        107.3640   -4.7450    2.2010 C.2   156  ILE156      0.2287
    133  O        108.0250   -5.6210    1.6830 O.2   156  ILE156     -0.2864
    134  CB       107.7660   -2.2830    1.7610 C.3   156  ILE156      0.0276
    135  CG1      107.4710   -1.1240    0.7870 C.3   156  ILE156      0.0022
    136  CG2      109.2760   -2.6130    1.6680 C.3   156  ILE156      0.0022
    137  CD1      107.7100    0.3110    1.3360 C.3   156  ILE156      0.0001
    138  N        100.5500   -5.3830    8.2370 N.3   176  GLY176     -0.1210
    139  CA       101.8030   -6.0510    7.8520 C.3   176  GLY176      0.1956
    140  C        101.5910   -6.8890    6.6050 C.2   176  GLY176      0.2613
    141  O        100.5160   -6.8100    5.9630 O.2   176  GLY176     -0.2717
    142  N        102.5890   -7.7210    6.2770 N.am  177  THR177     -0.1938
    143  CA       102.5690   -8.6020    5.0820 C.3   177  THR177      0.2028
    144  C        101.6010   -9.7290    5.3030 C.2   177  THR177      0.2642
    145  O        101.5880  -10.3620    6.3880 O.2   177  THR177     -0.2714
    146  CB       103.9550   -9.2410    4.8310 C.3   177  THR177      0.1808
    147  OG1      104.9420   -8.2210    4.9510 O.3   177  THR177     -0.2208
    148  CG2      104.0710   -9.8360    3.4570 C.3   177  THR177      0.0379
    149  N        100.7660   -9.9650    4.3000 N.am  178  ILE178     -0.1977
    150  CA        99.9210  -11.1740    4.2580 C.3   178  ILE178      0.1596
    151  C        100.7660  -12.3860    3.8900 C.2   178  ILE178      0.2287
    152  O        101.4130  -12.4080    2.8600 O.2   178  ILE178     -0.2864
    153  CB        98.7720  -11.0330    3.2350 C.3   178  ILE178      0.0276
    154  CG1       98.0400   -9.7140    3.4330 C.3   178  ILE178      0.0022
    155  CG2       97.8060  -12.2370    3.3160 C.3   178  ILE178      0.0022
    156  CD1       97.1650   -9.3520    2.2590 C.3   178  ILE178      0.0001
    157  N         97.6170  -12.0130    8.3870 N.3   196  MET196     -0.1245
    158  CA        98.1290  -10.6670    8.3610 C.3   196  MET196      0.1570
    159  C         98.1180  -10.1400    9.7710 C.2   196  MET196      0.2261
    160  O         97.1250  -10.2980   10.4890 O.2   196  MET196     -0.2867
    161  CB        97.2760   -9.7540    7.4970 C.3   196  MET196      0.0387
    162  CG        98.0070   -8.5050    7.0800 C.3   196  MET196      0.0595
    163  SD        96.9590   -7.2310    6.3910 S.3   196  MET196     -0.1393
    164  CE        95.8480   -6.8150    7.7610 C.3   196  MET196      0.0692
@<TRIPOS>BOND
     1    29    28    1
     2    28    27    1
     3    15    14    2
     4    14    13    1
     5    26    27    1
     6    26    25    1
     7    21    22    1
     8    22    25    1
     9    22    23    1
    10    13    16    1
    11    13    12    1
    12    16    17    1
    13    20    19    1
    14    18    19    1
    15    18    17    1
    16    23    24    2
    17   105   106    2
    18   105   104    1
    19     4     3    2
    20   107   104    1
    21   107   108    1
    22   111   109   am
    23    11     9    1
    24   104   103    1
    25     3     2    1
    26    97    98    2
    27    97    96    1
    28     9    10    1
    29     9     8    2
    30   109   108    1
    31   109   110    2
    32    30    31    1
    33     8     7    1
    34    95    96    1
    35     6     7    1
    36     6     5    1
    37     2     5    1
    38     2     1    1
    39    96    99    1
    40    31    34    1
    41    31    32    1
    42    34    35    1
    43    99   100    1
    44    33    32    2
    45    32    36   am
    46   100   101    1
    47   100   102    1
    48    86    85    1
    49    85    84    1
    50    36    37    1
    51    90    89    2
    52    45    46   ar
    53    45    43   ar
    54    46    44   ar
    55   127   126    2
    56    43    41   ar
    57    89    88    1
    58    84    83    1
    59    37    38    1
    60    37    40    1
    61   128   129    1
    62   128   125    1
    63    44    42   ar
    64    41    42   ar
    65    41    40    1
    66    47    38   am
    67    47    48    1
    68    83    80    1
    69   126   125    1
    70   126   130   am
    71    51    52    1
    72    51    48    1
    73    38    39    2
    74   125   124    1
    75   135   137    1
    76   135   134    1
    77    52    53    1
    78    48    49    1
    79    49    50    2
    80    87    88    1
    81    87    81   am
    82    88    91    1
    83   131   130    1
    84   131   134    1
    85   131   132    1
    86   119   117   am
    87   136   134    1
    88   133   132    2
    89    80    81    1
    90    80    79    1
    91    72    70    1
    92    71    70    1
    93    71    73    1
    94    91    92    1
    95    81    82    2
    96   124   122   am
    97    70    67    1
    98   123   122    2
    99   156   154    1
   100   122   121    1
   101   152   151    2
   102    79    76   am
   103    69    68    2
   104    53    54    1
   105   117   116    1
   106   117   118    2
   107   153   155    1
   108   153   154    1
   109   153   150    1
   110   115   114    2
   111    92    94   ar
   112    92    93   ar
   113   148   146    1
   114   116   113    1
   115    77    76    2
   116    67    68    1
   117    67    66    1
   118    76    75    1
   119    68    74   am
   120    55    56    1
   121   151   150    1
   122    64    65   ar
   123    64    62   ar
   124    65    63   ar
   125   150   149    1
   126   121   120    1
   127   149   144   am
   128    62    60   ar
   129   114   113    1
   130    74    75    1
   131   113   112    1
   132    63    61   ar
   133   146   147    1
   134   146   143    1
   135    60    61   ar
   136    60    59    1
   137    75    78    1
   138   143   144    1
   139   143   142    1
   140    56    59    1
   141    56    57    1
   142   144   145    2
   143    57    58    2
   144   141   140    2
   145   142   140   am
   146   163   162    1
   147   163   164    1
   148   140   139    1
   149   162   161    1
   150   161   158    1
   151   139   138    1
   152   158   157    1
   153   158   159    1
   154   159   160    2
