@<TRIPOS>MOLECULE
tmp/2ii4E01.pdb
 202 191 0 0 0
SMALL
GASTEIGER

@<TRIPOS>ATOM
      1  N         98.4390    8.7120   31.9510 N.3    19  MET19      -0.1245
      2  CA        99.1740    8.4740   30.7440 C.3    19  MET19       0.1570
      3  C        100.0710    9.6670   30.4210 C.2    19  MET19       0.2261
      4  O        101.1270    9.5030   29.8560 O.2    19  MET19      -0.2867
      5  CB        98.2400    8.1800   29.5890 C.3    19  MET19       0.0387
      6  CG        97.4970    6.8990   29.7230 C.3    19  MET19       0.0595
      7  SD        98.4830    5.5810   30.3750 S.3    19  MET19      -0.1393
      8  CE        97.2060    4.4800   30.9140 C.3    19  MET19       0.0692
      9  N         94.5940  -26.0870   34.7430 N.3    43  ARG43      -0.1245
     10  CA        93.4700  -25.2310   35.1420 C.3    43  ARG43       0.1563
     11  C         92.1270  -25.9360   35.0550 C.2    43  ARG43       0.2260
     12  O         91.3210  -25.8560   35.9770 O.2    43  ARG43      -0.2867
     13  CB        93.4090  -23.9530   34.3340 C.3    43  ARG43       0.0307
     14  CG        92.1730  -23.1460   34.6860 C.3    43  ARG43       0.0489
     15  CD        91.8960  -22.1620   33.6330 C.3    43  ARG43       0.2205
     16  NE        90.6960  -21.4110   33.9700 N.pl3  43  ARG43      -0.0865
     17  CZ        89.6990  -21.2400   33.1320 C.cat  43  ARG43       0.5346
     18  NH1       89.8180  -21.7500   31.9050 N.pl3  43  ARG43       0.1354
     19  NH2       88.6160  -20.5550   33.5140 N.pl3  43  ARG43       0.1354
     20  N         89.5200  -25.9200   38.1070 N.3    47  LYS47      -0.1245
     21  CA        88.2220  -25.2690   37.8650 C.3    47  LYS47       0.1561
     22  C         87.1210  -25.8520   38.8060 C.2    47  LYS47       0.2260
     23  O         86.5310  -25.1220   39.5880 O.2    47  LYS47      -0.2867
     24  CB        87.8390  -25.4410   36.3780 C.3    47  LYS47       0.0271
     25  CG        87.0840  -24.3190   35.6900 C.3    47  LYS47       0.0035
     26  CD        87.3170  -24.4290   34.1610 C.3    47  LYS47       0.0206
     27  CE        86.3130  -23.6560   33.2720 C.3    47  LYS47       0.1093
     28  NZ        86.5370  -24.1250   31.8590 N.3    47  LYS47      -0.1314
     29  N         85.3080  -18.2950   40.7260 N.3    56  LYS56      -0.1245
     30  CA        85.6480  -18.5240   39.3400 C.3    56  LYS56       0.1561
     31  C         87.1820  -18.4690   39.2310 C.2    56  LYS56       0.2260
     32  O         87.7930  -17.4820   39.6070 O.2    56  LYS56      -0.2867
     33  CB        84.9550  -17.5170   38.4190 C.3    56  LYS56       0.0271
     34  CG        83.4690  -17.7300   38.2110 C.3    56  LYS56       0.0035
     35  CD        82.9170  -16.6530   37.2760 C.3    56  LYS56       0.0206
     36  CE        83.1440  -17.0160   35.7840 C.3    56  LYS56       0.1093
     37  NZ        82.2180  -18.1400   35.3770 N.3    56  LYS56      -0.1314
     38  N         90.2430  -18.3310   36.8300 N.3    58  SER58      -0.1202
     39  CA        90.8060  -18.1010   35.4810 C.3    58  SER58       0.2020
     40  C         92.3550  -18.3340   35.4440 C.2    58  SER58       0.2619
     41  O         92.9090  -18.9860   36.3120 O.2    58  SER58      -0.2717
     42  CB        90.4640  -16.6870   35.0080 C.3    58  SER58       0.2103
     43  OG        91.3090  -15.7690   35.6810 O.3    58  SER58      -0.2182
     44  N         93.0520  -17.7680   34.4740 N.am   59  PHE59      -0.1961
     45  CA        94.4670  -17.9660   34.4310 C.3    59  PHE59       0.1771
     46  C         95.1690  -16.8970   35.2270 C.2    59  PHE59       0.2619
     47  O         96.3250  -17.0620   35.6640 O.2    59  PHE59      -0.2715
     48  CB        94.9460  -17.9380   33.0120 C.3    59  PHE59       0.0574
     49  CG        94.4450  -19.0720   32.1950 C.ar   59  PHE59      -0.0200
     50  CD1       95.1440  -20.2810   32.1460 C.ar   59  PHE59      -0.0042
     51  CD2       93.3040  -18.9410   31.4300 C.ar   59  PHE59      -0.0042
     52  CE1       94.6860  -21.3760   31.3470 C.ar   59  PHE59      -0.0003
     53  CE2       92.8320  -20.0200   30.6020 C.ar   59  PHE59      -0.0003
     54  CZ        93.5340  -21.2310   30.5550 C.ar   59  PHE59      -0.0000
     55  N         94.4750  -15.7970   35.4460 N.am   60  MET60      -0.1977
     56  CA        95.1280  -14.6470   36.0500 C.3    60  MET60       0.1605
     57  C         95.7400  -14.9710   37.3920 C.2    60  MET60       0.2287
     58  O         96.8260  -14.5230   37.6740 O.2    60  MET60      -0.2864
     59  CB        94.1770  -13.4880   36.1620 C.3    60  MET60       0.0413
     60  CG        94.0440  -12.7610   34.8730 C.3    60  MET60       0.0598
     61  SD        95.5810  -11.8520   34.5070 S.3    60  MET60      -0.1393
     62  CE        95.6920  -10.6510   35.8300 C.3    60  MET60       0.0692
     63  N         99.0760  -16.3860   36.6100 N.3    63  PHE63      -0.1241
     64  CA        99.9260  -15.2960   36.1300 C.3    63  PHE63       0.1605
     65  C        100.3500  -14.4240   37.2890 C.2    63  PHE63       0.2264
     66  O        101.4920  -14.0180   37.3710 O.2    63  PHE63      -0.2867
     67  CB        99.2000  -14.4190   35.1150 C.3    63  PHE63       0.0534
     68  CG        98.7460  -15.1430   33.8890 C.ar   63  PHE63      -0.0203
     69  CD1       99.2570  -16.3800   33.5640 C.ar   63  PHE63      -0.0042
     70  CD2       97.8000  -14.5590   33.0410 C.ar   63  PHE63      -0.0042
     71  CE1       98.8490  -17.0550   32.4270 C.ar   63  PHE63      -0.0003
     72  CE2       97.3590  -15.2530   31.8760 C.ar   63  PHE63      -0.0003
     73  CZ        97.8990  -16.5110   31.5730 C.ar   63  PHE63      -0.0000
     74  N         95.4840   -4.7480   38.5070 N.3    98  ILE98      -0.1231
     75  CA        94.7750   -5.5420   37.5390 C.3    98  ILE98       0.1692
     76  C         94.0430   -4.5770   36.6260 C.2    98  ILE98       0.2592
     77  O         93.0660   -3.9290   37.0590 O.2    98  ILE98      -0.2718
     78  CB        93.7140   -6.4280   38.2130 C.3    98  ILE98       0.0266
     79  CG1       94.3030   -7.1460   39.4280 C.3    98  ILE98       0.0019
     80  CG2       93.1960   -7.4640   37.2070 C.3    98  ILE98       0.0020
     81  CD1       95.4730   -8.1410   39.0980 C.3    98  ILE98       0.0001
     82  N         94.5020   -4.4520   35.3820 N.am   99  ALA99      -0.1966
     83  CA        93.9310   -3.4240   34.5040 C.3    99  ALA99       0.1728
     84  C         92.6170   -4.0230   34.1820 C.2    99  ALA99       0.2616
     85  O         92.5620   -5.1730   33.7370 O.2    99  ALA99      -0.2715
     86  CB        94.7810   -3.1920   33.2020 C.3    99  ALA99       0.0334
     87  N         91.5440   -3.3090   34.4630 N.am  100  MET100     -0.1963
     88  CA        90.2390   -3.9190   34.2450 C.3   100  MET100      0.1736
     89  C         89.2220   -3.0600   33.4950 C.2   100  MET100      0.2616
     90  O         88.9680   -1.8740   33.8240 O.2   100  MET100     -0.2715
     91  CB        89.6910   -4.5630   35.5210 C.3   100  MET100      0.0427
     92  CG        88.9040   -3.7430   36.4570 C.3   100  MET100      0.0599
     93  SD        87.7840   -4.7390   37.5290 S.3   100  MET100     -0.1393
     94  CE        88.9470   -5.7950   38.4100 C.3   100  MET100      0.0692
     95  N         88.7410   -3.6730   32.4220 N.am  101  ASP101     -0.1971
     96  CA        87.7600   -3.1170   31.5550 C.3   101  ASP101      0.1709
     97  C         86.4120   -3.0130   32.2490 C.2   101  ASP101      0.2293
     98  O         85.8770   -4.0090   32.7040 O.2   101  ASP101     -0.2864
     99  CB        87.6080   -4.0330   30.3590 C.3   101  ASP101      0.1436
    100  CG        86.5400   -3.5450   29.3770 C.2   101  ASP101      0.3671
    101  OD1       86.4360   -2.3210   29.1070 O.co2 101  ASP101     -0.2456
    102  OD2       85.8240   -4.3970   28.8440 O.co2 101  ASP101     -0.2456
    103  N         88.4200    2.2660   32.3200 N.3   106  LEU106     -0.1245
    104  CA        89.4690    1.3100   32.2600 C.3   106  LEU106      0.1561
    105  C         89.7030    1.6540   33.7350 C.2   106  LEU106      0.2260
    106  O         89.6980    2.8340   34.1010 O.2   106  LEU106     -0.2867
    107  CB        90.7120    1.7280   31.4660 C.3   106  LEU106      0.0270
    108  CG        92.0120    1.0550   32.0060 C.3   106  LEU106      0.0019
    109  CD1       91.9920   -0.4430   31.9110 C.3   106  LEU106      0.0001
    110  CD2       93.2550    1.5080   31.3210 C.3   106  LEU106      0.0001
    111  N         90.6350  -11.4710   43.2700 N.3   126  LEU126     -0.1245
    112  CA        90.2410  -11.1360   41.9020 C.3   126  LEU126      0.1561
    113  C         88.7230  -11.0840   41.6880 C.2   126  LEU126      0.2260
    114  O         88.2240  -10.0670   41.1590 O.2   126  LEU126     -0.2867
    115  CB        90.8480  -12.1060   40.8910 C.3   126  LEU126      0.0270
    116  CG        91.6000  -11.5580   39.6770 C.3   126  LEU126      0.0019
    117  CD1       91.7450  -12.6400   38.6480 C.3   126  LEU126      0.0001
    118  CD2       90.9000  -10.3160   39.0460 C.3   126  LEU126      0.0001
    119  N         86.3670   -7.9610   40.6370 N.3   130  GLN130     -0.1245
    120  CA        85.5520   -7.9120   39.4410 C.3   130  GLN130      0.1566
    121  C         84.1170   -7.4370   39.7320 C.2   130  GLN130      0.2260
    122  O         83.5760   -6.5860   39.0040 O.2   130  GLN130     -0.2867
    123  CB        85.5200   -9.2850   38.8070 C.3   130  GLN130      0.0367
    124  CG        86.8270   -9.5710   38.0240 C.3   130  GLN130      0.0905
    125  CD        86.9270  -11.0100   37.6580 C.2   130  GLN130      0.2608
    126  OE1       87.2880  -11.8540   38.5010 O.2   130  GLN130     -0.2717
    127  NE2       86.5570  -11.3290   36.4120 N.am  130  GLN130     -0.0878
    128  N         98.0400   -6.6550   32.5520 N.3   151  SER151     -0.1202
    129  CA        96.9500   -6.2120   31.7170 C.3   151  SER151      0.2020
    130  C         96.5610   -7.3730   30.8770 C.2   151  SER151      0.2619
    131  O         97.1560   -7.6260   29.8210 O.2   151  SER151     -0.2717
    132  CB        97.4210   -5.0750   30.8180 C.3   151  SER151      0.2103
    133  OG        96.3570   -4.5620   30.0180 O.3   151  SER151     -0.2182
    134  N         95.5790   -8.1290   31.3670 N.am  152  ASN152     -0.1960
    135  CA        95.0480   -9.2330   30.5920 C.3   152  ASN152      0.1819
    136  C         94.1510   -8.7890   29.4580 C.2   152  ASN152      0.2621
    137  O         92.9830   -9.0940   29.4410 O.2   152  ASN152     -0.2715
    138  CB        94.3220  -10.2520   31.4770 C.3   152  ASN152      0.1195
    139  CG        93.9350  -11.5050   30.7030 C.2   152  ASN152      0.2630
    140  OD1       94.5070  -11.7760   29.6330 O.2   152  ASN152     -0.2716
    141  ND2       92.9620  -12.2580   31.2170 N.am  152  ASN152     -0.0877
    142  N         94.7070   -8.1080   28.4690 N.am  153  ILE153     -0.1963
    143  CA        93.8850   -7.6770   27.3360 C.3   153  ILE153      0.1727
    144  C         93.3780   -8.8690   26.5270 C.2   153  ILE153      0.2617
    145  O         92.3700   -8.7770   25.8190 O.2   153  ILE153     -0.2715
    146  CB        94.6150   -6.6400   26.4640 C.3   153  ILE153      0.0290
    147  CG1       93.6620   -6.0480   25.4120 C.3   153  ILE153      0.0022
    148  CG2       95.8560   -7.2330   25.8150 C.3   153  ILE153      0.0023
    149  CD1       92.4970   -5.2700   25.9970 C.3   153  ILE153      0.0001
    150  N         94.0600  -10.0090   26.6740 N.am  154  GLY154     -0.1940
    151  CA        93.7420  -11.2260   25.9380 C.3   154  GLY154      0.2014
    152  C         92.3970  -11.8540   26.2770 C.2   154  GLY154      0.2640
    153  O         91.9330  -12.7430   25.5410 O.2   154  GLY154     -0.2714
    154  N         91.7850  -11.4300   27.3830 N.am  155  SER155     -0.1935
    155  CA        90.4060  -11.8290   27.6640 C.3   155  SER155      0.2055
    156  C         89.4990  -11.1740   26.6530 C.2   155  SER155      0.2642
    157  O         88.3790  -11.6160   26.4780 O.2   155  SER155     -0.2714
    158  CB        89.9270  -11.4520   29.0790 C.3   155  SER155      0.2130
    159  OG        90.0020  -10.0290   29.2910 O.3   155  SER155     -0.2179
    160  N         89.9700  -10.1190   25.9950 N.am  156  ILE156     -0.1977
    161  CA        89.1850   -9.5470   24.9290 C.3   156  ILE156      0.1596
    162  C         89.7600   -9.9750   23.5860 C.2   156  ILE156      0.2287
    163  O         89.0130  -10.3590   22.6930 O.2   156  ILE156     -0.2864
    164  CB        89.0300   -8.0280   25.0160 C.3   156  ILE156      0.0276
    165  CG1       88.3430   -7.6430   26.3360 C.3   156  ILE156      0.0022
    166  CG2       88.1760   -7.5670   23.8980 C.3   156  ILE156      0.0022
    167  CD1       88.4350   -6.1350   26.7500 C.3   156  ILE156      0.0001
    168  N         99.0710   -9.4710   28.4830 N.3   175  LEU175     -0.1231
    169  CA        98.8470  -10.8520   28.0050 C.3   175  LEU175      0.1693
    170  C         97.8800  -10.9350   26.8310 C.2   175  LEU175      0.2593
    171  O         96.8150  -10.3340   26.8510 O.2   175  LEU175     -0.2718
    172  CB        98.3210  -11.7230   29.1210 C.3   175  LEU175      0.0284
    173  CG        98.9860  -11.9270   30.4990 C.3   175  LEU175      0.0019
    174  CD1      100.4740  -11.7570   30.4760 C.3   175  LEU175      0.0001
    175  CD2       98.4000  -11.0150   31.5510 C.3   175  LEU175      0.0001
    176  N         98.2320  -11.6600   25.7850 N.am  176  GLY176     -0.1942
    177  CA        97.3690  -11.7330   24.5970 C.3   176  GLY176      0.2014
    178  C         96.4620  -12.9280   24.7450 C.2   176  GLY176      0.2640
    179  O         96.5180  -13.5980   25.7840 O.2   176  GLY176     -0.2714
    180  N         95.6210  -13.1760   23.7380 N.am  177  THR177     -0.1936
    181  CA        94.7240  -14.3130   23.7610 C.3   177  THR177      0.2028
    182  C         95.4860  -15.6050   23.6300 C.2   177  THR177      0.2642
    183  O         96.3620  -15.7330   22.7670 O.2   177  THR177     -0.2714
    184  CB        93.6890  -14.2740   22.6150 C.3   177  THR177      0.1808
    185  OG1       92.8780  -13.1140   22.7650 O.3   177  THR177     -0.2208
    186  CG2       92.7440  -15.5310   22.6730 C.3   177  THR177      0.0379
    187  N         95.1420  -16.5420   24.5070 N.am  178  ILE178     -0.1977
    188  CA        95.6010  -17.9250   24.4610 C.3   178  ILE178      0.1596
    189  C         94.9610  -18.6700   23.2710 C.2   178  ILE178      0.2287
    190  O         93.7350  -18.7870   23.1840 O.2   178  ILE178     -0.2864
    191  CB        95.2470  -18.6340   25.7800 C.3   178  ILE178      0.0276
    192  CG1       95.8940  -17.9160   26.9620 C.3   178  ILE178      0.0022
    193  CG2       95.6950  -20.0540   25.7610 C.3   178  ILE178      0.0022
    194  CD1       95.2230  -18.2720   28.2700 C.3   178  ILE178      0.0001
    195  N        100.3470  -18.3950   24.3180 N.3   196  MET196     -0.1245
    196  CA       100.0090  -17.0240   24.7080 C.3   196  MET196      0.1570
    197  C        101.2080  -16.1010   24.5170 C.2   196  MET196      0.2261
    198  O        102.3390  -16.4580   24.8800 O.2   196  MET196     -0.2867
    199  CB        99.5880  -16.9690   26.1600 C.3   196  MET196      0.0387
    200  CG        99.0300  -15.6220   26.6070 C.3   196  MET196      0.0595
    201  SD        98.6650  -15.6110   28.3980 S.3   196  MET196     -0.1393
    202  CE       100.3180  -15.3810   29.0850 C.3   196  MET196      0.0692
@<TRIPOS>BOND
     1   184   186    1
     2   184   185    1
     3   184   181    1
     4   163   162    2
     5   183   182    2
     6   190   189    2
     7   189   188    1
     8   162   161    1
     9   182   181    1
    10   182   187   am
    11   180   181    1
    12   180   178   am
    13   166   164    1
    14   195   196    1
    15   188   187    1
    16   188   191    1
    17   197   196    1
    18   197   198    2
    19   177   178    1
    20   177   176    1
    21   196   199    1
    22   178   179    2
    23   161   164    1
    24   161   160    1
    25   164   165    1
    26   147   149    1
    27   147   146    1
    28   153   152    2
    29   193   191    1
    30   191   192    1
    31   176   170   am
    32   148   146    1
    33   145   144    2
    34   151   152    1
    35   151   150    1
    36   160   156   am
    37   199   200    1
    38   152   154   am
    39   165   167    1
    40   146   143    1
    41   157   156    2
    42   144   150   am
    43   144   143    1
    44   200   201    1
    45   156   155    1
    46   170   171    2
    47   170   169    1
    48   192   194    1
    49   143   142    1
    50   154   155    1
    51   155   158    1
    52   169   168    1
    53   169   172    1
    54   201   202    1
    55   142   136   am
    56   102   100   ar
    57   158   159    1
    58   101   100   ar
    59   172   173    1
    60   100    99    1
    61   137   136    2
    62   136   135    1
    63     5     6    1
    64     5     2    1
    65   140   139    2
    66     6     7    1
    67   131   130    2
    68     4     3    2
    69   133   132    1
    70    99    96    1
    71     7     8    1
    72     3     2    1
    73   174   173    1
    74   173   175    1
    75    54    53   ar
    76    54    52   ar
    77   135   134    1
    78   135   138    1
    79    53    51   ar
    80   139   141   am
    81   139   138    1
    82     2     1    1
    83   132   129    1
    84   130   134   am
    85   130   129    1
    86   110   108    1
    87    52    50   ar
    88    51    49   ar
    89   107   108    1
    90   107   104    1
    91    96    97    1
    92    96    95    1
    93    73    72   ar
    94    73    71   ar
    95   129   128    1
    96    28    27    1
    97    72    70   ar
    98    18    17    1
    99   109   108    1
   100    50    49   ar
   101    49    48    1
   102    97    98    2
   103   104   103    1
   104   104   105    1
   105    95    89   am
   106    71    69   ar
   107    48    45    1
   108    70    68   ar
   109    17    19    1
   110    17    16    2
   111    86    83    1
   112    27    26    1
   113    89    90    2
   114    89    88    1
   115    69    68   ar
   116    15    16    1
   117    15    14    1
   118   105   106    2
   119    85    84    2
   120    68    67    1
   121    26    25    1
   122    84    87   am
   123    84    83    1
   124    88    87    1
   125    88    91    1
   126    13    14    1
   127    13    10    1
   128    45    44    1
   129    45    46    1
   130    44    40   am
   131    83    82    1
   132    61    60    1
   133    61    62    1
   134     9    10    1
   135    60    59    1
   136    42    39    1
   137    42    43    1
   138    11    10    1
   139    11    12    2
   140    67    64    1
   141    46    55   am
   142    46    47    2
   143    37    36    1
   144    82    76   am
   145    40    39    1
   146    40    41    2
   147    55    56    1
   148    39    38    1
   149    91    92    1
   150    25    24    1
   151    36    35    1
   152    56    59    1
   153    56    57    1
   154    64    63    1
   155    64    65    1
   156    24    21    1
   157   127   125   am
   158    92    93    1
   159    76    77    2
   160    76    75    1
   161    80    78    1
   162    35    34    1
   163    65    66    2
   164    57    58    2
   165    93    94    1
   166    75    78    1
   167    75    74    1
   168   125   124    1
   169   125   126    2
   170    21    20    1
   171    21    22    1
   172   124   123    1
   173    34    33    1
   174    78    79    1
   175    33    30    1
   176   117   116    1
   177    22    23    2
   178   123   120    1
   179   122   121    2
   180   118   116    1
   181    81    79    1
   182    31    30    1
   183    31    32    2
   184    30    29    1
   185   120   121    1
   186   120   119    1
   187   116   115    1
   188   115   112    1
   189   114   113    2
   190   113   112    1
   191   112   111    1
