@<TRIPOS>MOLECULE
tmp/2ii5D00.pdb
 128 120 0 0 0
SMALL
GASTEIGER

@<TRIPOS>ATOM
      1  N        126.2120  -21.7950    9.7330 N.3    43  ARG43      -0.1231
      2  CA       127.0540  -21.5620   10.8890 C.3    43  ARG43       0.1694
      3  C        127.5320  -22.8870   11.4870 C.2    43  ARG43       0.2591
      4  O        128.7140  -23.0090   11.8310 O.2    43  ARG43      -0.2718
      5  CB       126.3420  -20.7040   11.9240 C.3    43  ARG43       0.0321
      6  CG       126.8580  -20.9240   13.3090 C.3    43  ARG43       0.0489
      7  CD       126.3470  -19.8990   14.2110 C.3    43  ARG43       0.2205
      8  NE       126.8890  -20.0720   15.5560 N.pl3  43  ARG43      -0.0865
      9  CZ       126.4100  -20.9380   16.4430 C.cat  43  ARG43       0.5346
     10  NH1      125.3680  -21.7320   16.1440 N.pl3  43  ARG43       0.1354
     11  NH2      126.9810  -20.9990   17.6270 N.pl3  43  ARG43       0.1354
     12  N        126.6370  -23.8760   11.5730 N.am   44  GLU44      -0.1979
     13  CA       127.0380  -25.2380   12.0360 C.3    44  GLU44       0.1602
     14  C        128.2850  -25.7490   11.3010 C.2    44  GLU44       0.2287
     15  O        129.2910  -26.1270   11.9340 O.2    44  GLU44      -0.2864
     16  CB       125.9000  -26.2830   11.9410 C.3    44  GLU44       0.0415
     17  CG       124.8910  -26.3060   13.1240 C.3    44  GLU44       0.1163
     18  CD       125.5430  -26.6060   14.5080 C.2    44  GLU44       0.3649
     19  OE1      125.4420  -25.7480   15.4280 O.co2  44  GLU44      -0.2457
     20  OE2      126.1490  -27.6970   14.6680 O.co2  44  GLU44      -0.2457
     21  N        131.7460  -23.8140   12.1970 N.3    47  LYS47      -0.1245
     22  CA       132.3600  -23.8170   13.5490 C.3    47  LYS47       0.1561
     23  C        133.7500  -24.4630   13.6000 C.2    47  LYS47       0.2260
     24  O        134.7120  -23.8330   14.0620 O.2    47  LYS47      -0.2867
     25  CB       131.4270  -24.4030   14.6250 C.3    47  LYS47       0.0271
     26  CG       130.3600  -23.3920   15.0810 C.3    47  LYS47       0.0035
     27  CD       129.6990  -23.7280   16.4580 C.3    47  LYS47       0.0206
     28  CE       128.4960  -24.6820   16.3390 C.3    47  LYS47       0.1093
     29  NZ       127.6500  -24.6910   17.5750 N.3    47  LYS47      -0.1314
     30  N        134.9920  -18.3260   18.9390 N.3    56  LYS56      -0.1245
     31  CA       133.5840  -18.6940   19.0150 C.3    56  LYS56       0.1561
     32  C        132.8910  -17.9230   17.8990 C.2    56  LYS56       0.2260
     33  O        133.0140  -16.6910   17.8060 O.2    56  LYS56      -0.2867
     34  CB       132.9590  -18.2790   20.3490 C.3    56  LYS56       0.0271
     35  CG       133.8140  -18.4780   21.6070 C.3    56  LYS56       0.0035
     36  CD       132.9650  -18.9620   22.8540 C.3    56  LYS56       0.0206
     37  CE       133.8890  -19.6340   23.9220 C.3    56  LYS56       0.1093
     38  NZ       133.1900  -20.2360   25.0880 N.3    56  LYS56      -0.1314
     39  N        129.3480  -16.9090   16.7250 N.3    58  SER58      -0.1202
     40  CA       127.9160  -16.8600   16.9290 C.3    58  SER58       0.2020
     41  C        127.2480  -16.3330   15.6660 C.2    58  SER58       0.2619
     42  O        127.8800  -16.2370   14.6260 O.2    58  SER58      -0.2717
     43  CB       127.5890  -15.9930   18.1320 C.3    58  SER58       0.2103
     44  OG       127.7650  -14.6000   17.8550 O.3    58  SER58      -0.2182
     45  N        125.9820  -15.9510   15.7680 N.am   59  PHE59      -0.1961
     46  CA       125.2640  -15.3270   14.6780 C.3    59  PHE59       0.1771
     47  C        125.5560  -13.8550   14.4510 C.2    59  PHE59       0.2619
     48  O        125.4050  -13.3580   13.3290 O.2    59  PHE59      -0.2715
     49  CB       123.7960  -15.4990   14.9450 C.3    59  PHE59       0.0574
     50  CG       123.3940  -16.9180   14.9940 C.ar   59  PHE59      -0.0200
     51  CD1      123.0960  -17.6080   13.8090 C.ar   59  PHE59      -0.0042
     52  CD2      123.3410  -17.5860   16.2050 C.ar   59  PHE59      -0.0042
     53  CE1      122.7500  -18.9510   13.8440 C.ar   59  PHE59      -0.0003
     54  CE2      123.0010  -18.9220   16.2500 C.ar   59  PHE59      -0.0003
     55  CZ       122.7060  -19.6260   15.0780 C.ar   59  PHE59      -0.0000
     56  N        125.9870  -13.1640   15.4980 N.am   60  MET60      -0.1977
     57  CA       126.1140  -11.7220   15.4330 C.3    60  MET60       0.1605
     58  C        127.0720  -11.2320   14.3330 C.2    60  MET60       0.2287
     59  O        126.7630  -10.2430   13.6440 O.2    60  MET60      -0.2864
     60  CB       126.4340  -11.1430   16.8060 C.3    60  MET60       0.0413
     61  CG       125.2320  -11.1140   17.7450 C.3    60  MET60       0.0598
     62  SD       124.0690   -9.7520   17.3900 S.3    60  MET60      -0.1393
     63  CE       125.1140   -8.3460   17.5440 C.3    60  MET60       0.0692
     64  N        124.8920  -11.0860   11.4900 N.3    63  PHE63      -0.1241
     65  CA       123.9620  -10.0070   11.7260 C.3    63  PHE63       0.1605
     66  C        124.5930   -8.6400   11.4830 C.2    63  PHE63       0.2264
     67  O        124.0150   -7.8160   10.8000 O.2    63  PHE63      -0.2867
     68  CB       123.3930  -10.0860   13.1220 C.3    63  PHE63       0.0534
     69  CG       122.5300  -11.2780   13.3570 C.ar   63  PHE63      -0.0203
     70  CD1      122.0020  -12.0010   12.2810 C.ar   63  PHE63      -0.0042
     71  CD2      122.2220  -11.6700   14.6550 C.ar   63  PHE63      -0.0042
     72  CE1      121.1890  -13.1480   12.4830 C.ar   63  PHE63      -0.0003
     73  CE2      121.3980  -12.7910   14.8960 C.ar   63  PHE63      -0.0003
     74  CZ       120.8740  -13.5300   13.8030 C.ar   63  PHE63      -0.0000
     75  N        133.5000   -8.6630   24.1430 N.3   130  GLN130     -0.1245
     76  CA       132.7540   -9.4400   25.1310 C.3   130  GLN130      0.1566
     77  C        133.6500   -9.7060   26.3350 C.2   130  GLN130      0.2260
     78  O        133.2260   -9.5430   27.4780 O.2   130  GLN130     -0.2867
     79  CB       132.2700  -10.7590   24.5200 C.3   130  GLN130      0.0367
     80  CG       131.6050  -11.7400   25.4780 C.3   130  GLN130      0.0905
     81  CD       130.1560  -11.3380   25.8020 C.2   130  GLN130      0.2608
     82  OE1      129.3210  -11.1100   24.8900 O.2   130  GLN130     -0.2717
     83  NE2      129.8490  -11.2430   27.1030 N.am  130  GLN130     -0.0878
     84  N        121.0550   -8.0380   20.9500 N.3   152  ASN152     -0.1240
     85  CA       120.6770   -9.4630   20.8600 C.3   152  ASN152      0.1653
     86  C        119.9670   -9.9450   22.1050 C.2   152  ASN152      0.2266
     87  O        120.5330  -10.6540   22.9020 O.2   152  ASN152     -0.2867
     88  CB       121.8690  -10.3520   20.5510 C.3   152  ASN152      0.1155
     89  CG       121.4910  -11.8290   20.4230 C.2   152  ASN152      0.2627
     90  OD1      120.3040  -12.1840   20.2780 O.2   152  ASN152     -0.2716
     91  ND2      122.4930  -12.7060   20.5330 N.am  152  ASN152     -0.0877
     92  N        117.7300  -12.1200   22.3360 N.3   154  GLY154     -0.1210
     93  CA       117.3480  -13.5260   22.2400 C.3   154  GLY154      0.1956
     94  C        118.4700  -14.4440   22.7010 C.2   154  GLY154      0.2612
     95  O        118.2940  -15.6780   22.7730 O.2   154  GLY154     -0.2717
     96  N        119.6340  -13.8670   23.0080 N.am  155  SER155     -0.1952
     97  CA       120.6040  -14.6730   23.7450 C.3   155  SER155      0.1924
     98  C        120.0860  -14.8990   25.1470 C.2   155  SER155      0.2314
     99  O        120.7260  -15.5960   25.9200 O.2   155  SER155     -0.2863
    100  CB       121.9950  -14.0230   23.8050 C.3   155  SER155      0.2116
    101  OG       121.9550  -12.8550   24.5810 O.3   155  SER155     -0.2180
    102  N        115.4190  -11.3870   18.4210 N.3   176  GLY176     -0.1210
    103  CA       114.7860  -12.3180   19.3510 C.3   176  GLY176      0.1956
    104  C        115.4100  -13.6970   19.2890 C.2   176  GLY176      0.2613
    105  O        116.4070  -13.8910   18.5790 O.2   176  GLY176     -0.2717
    106  N        114.8060  -14.6390   20.0250 N.am  177  THR177     -0.1938
    107  CA       115.2680  -16.0140   20.1230 C.3   177  THR177      0.2028
    108  C        114.9380  -16.7390   18.8450 C.2   177  THR177      0.2642
    109  O        113.8570  -16.5310   18.2690 O.2   177  THR177     -0.2714
    110  CB       114.6590  -16.7280   21.3190 C.3   177  THR177      0.1808
    111  OG1      115.1530  -16.1290   22.5350 O.3   177  THR177     -0.2208
    112  CG2      115.0660  -18.1820   21.3500 C.3   177  THR177      0.0379
    113  N        115.9170  -17.5140   18.3600 N.am  178  ILE178     -0.1977
    114  CA       115.7700  -18.4390   17.2130 C.3   178  ILE178      0.1596
    115  C        115.1120  -19.7120   17.6860 C.2   178  ILE178      0.2287
    116  O        115.6470  -20.4100   18.5460 O.2   178  ILE178     -0.2864
    117  CB       117.1460  -18.7990   16.5610 C.3   178  ILE178      0.0276
    118  CG1      117.9830  -17.5200   16.3630 C.3   178  ILE178      0.0022
    119  CG2      116.9500  -19.6240   15.2210 C.3   178  ILE178      0.0022
    120  CD1      119.2230  -17.7650   15.6540 C.3   178  ILE178      0.0001
    121  N        113.4880  -16.3790   13.4540 N.3   196  MET196     -0.1245
    122  CA       113.9060  -15.3280   14.3860 C.3   196  MET196      0.1570
    123  C        113.1020  -14.0160   14.0970 C.2   196  MET196      0.2261
    124  O        112.8400  -13.6430   12.9290 O.2   196  MET196     -0.2867
    125  CB       115.4270  -15.1010   14.2770 C.3   196  MET196      0.0387
    126  CG       116.1110  -14.3920   15.4600 C.3   196  MET196      0.0595
    127  SD       117.6670  -13.4770   15.1380 S.3   196  MET196     -0.1393
    128  CE       117.3070  -12.5430   13.6540 C.3   196  MET196      0.0692
@<TRIPOS>BOND
     1     1     2    1
     2    67    66    2
     3     2     3    1
     4     2     5    1
     5    14    15    2
     6    14    13    1
     7    66    65    1
     8     3    12   am
     9     3     4    2
    10    64    65    1
    11    12    13    1
    12    65    68    1
    13     5     6    1
    14    16    13    1
    15    16    17    1
    16    21    22    1
    17    70    72   ar
    18    70    69   ar
    19    72    74   ar
    20   124   123    2
    21    68    69    1
    22    17    18    1
    23     6     7    1
    24    48    47    2
    25    69    71   ar
    26   121   122    1
    27    22    23    1
    28    22    25    1
    29    23    24    2
    30    59    58    2
    31   128   127    1
    32    74    73   ar
    33    51    53   ar
    34    51    50   ar
    35    53    55   ar
    36   123   122    1
    37     7     8    1
    38   125   122    1
    39   125   126    1
    40    58    57    1
    41    47    46    1
    42    47    56   am
    43    18    20   ar
    44    18    19   ar
    45    25    26    1
    46    42    41    2
    47    71    73   ar
    48    46    49    1
    49    46    45    1
    50    49    50    1
    51    50    52   ar
    52    55    54   ar
    53    26    27    1
    54   127   126    1
    55   119   117    1
    56    57    56    1
    57    57    60    1
    58     8     9    2
    59   120   118    1
    60    41    45   am
    61    41    40    1
    62    10     9    1
    63    52    54   ar
    64    28    27    1
    65    28    29    1
    66   118   117    1
    67     9    11    1
    68   117   114    1
    69    39    40    1
    70    60    61    1
    71    40    43    1
    72   114   115    1
    73   114   113    1
    74    62    63    1
    75    62    61    1
    76   115   116    2
    77    33    32    2
    78    44    43    1
    79    32    31    1
    80   109   108    2
    81   113   108   am
    82   102   103    1
    83   105   104    2
    84   108   107    1
    85    30    31    1
    86    31    34    1
    87   104   103    1
    88   104   106   am
    89   106   107    1
    90   107   110    1
    91    90    89    2
    92    34    35    1
    93    89    91   am
    94    89    88    1
    95    88    85    1
    96    85    84    1
    97    85    86    1
    98   110   112    1
    99   110   111    1
   100    35    36    1
   101    86    87    2
   102    93    92    1
   103    93    94    1
   104    94    95    2
   105    94    96   am
   106    36    37    1
   107    96    97    1
   108    97   100    1
   109    97    98    1
   110   100   101    1
   111    37    38    1
   112    75    76    1
   113    79    76    1
   114    79    80    1
   115    82    81    2
   116    76    77    1
   117    98    99    2
   118    80    81    1
   119    81    83   am
   120    77    78    2
