@<TRIPOS>MOLECULE
tmp/2ii6A00.pdb
 117 115 0 0 0
SMALL
GASTEIGER

@<TRIPOS>ATOM
      1  N         13.9830   -4.0950    4.5240 N.3    12  SER12      -0.1217
      2  CA        15.1040   -3.1570    4.4210 C.3    12  SER12       0.1889
      3  C         14.8710   -1.7950    5.0920 C.2    12  SER12       0.2288
      4  O         15.6670   -1.3640    5.9370 O.2    12  SER12      -0.2866
      5  CB        15.5180   -2.9800    2.9780 C.3    12  SER12       0.2089
      6  OG        15.9900   -4.2210    2.4720 O.3    12  SER12      -0.2183
      7  N         17.7140    2.6950  -12.6930 N.3   241  THR241     -0.1203
      8  CA        17.3500    1.6000  -11.7930 C.3   241  THR241      0.1994
      9  C         17.1910    0.2990  -12.5840 C.2   241  THR241      0.2618
     10  O         16.2070    0.1130  -13.2890 O.2   241  THR241     -0.2717
     11  CB        16.0480    1.8880  -11.0870 C.3   241  THR241      0.1784
     12  OG1       15.0380    2.2000  -12.0580 O.3   241  THR241     -0.2211
     13  CG2       16.2200    3.0500  -10.1240 C.3   241  THR241      0.0376
     14  N         18.1590   -0.5970  -12.4480 N.am  242  GLY242     -0.1956
     15  CA        18.1340   -1.8720  -13.1700 C.3   242  GLY242      0.1869
     16  C         17.1300   -2.8750  -12.5850 C.2   242  GLY242      0.2309
     17  O         16.5700   -2.6960  -11.4730 O.2   242  GLY242     -0.2863
     18  N         22.3510    1.7100  -10.9330 N.3   285  LYS285     -0.1231
     19  CA        22.0140    1.0470   -9.6630 C.3   285  LYS285      0.1693
     20  C         21.3070   -0.2610   -9.9800 C.2   285  LYS285      0.2593
     21  O         20.0740   -0.3040  -10.2170 O.2   285  LYS285     -0.2718
     22  CB        21.1730    1.9770   -8.7880 C.3   285  LYS285      0.0285
     23  CG        20.5870    1.3600   -7.5690 C.3   285  LYS285      0.0035
     24  CD        21.6360    0.9760   -6.5420 C.3   285  LYS285      0.0206
     25  CE        21.7520   -0.5210   -6.4100 C.3   285  LYS285      0.1093
     26  NZ        20.7170   -1.2480   -5.5630 N.3   285  LYS285     -0.1314
     27  N         22.1050   -1.3220  -10.0460 N.am  286  GLY286     -0.1942
     28  CA        21.5830   -2.6380  -10.3560 C.3   286  GLY286      0.2014
     29  C         20.6570   -3.1660   -9.2850 C.2   286  GLY286      0.2639
     30  O         20.7360   -2.7750   -8.1180 O.2   286  GLY286     -0.2714
     31  N         19.7700   -4.0560   -9.7010 N.am  287  HIS287     -0.1959
     32  CA        18.8880   -4.7730   -8.7960 C.3   287  HIS287      0.1772
     33  C         19.7670   -5.6610   -7.8980 C.2   287  HIS287      0.2462
     34  O         20.7240   -6.2730   -8.3740 O.2   287  HIS287     -0.2730
     35  CB        17.8690   -5.5900   -9.6290 C.3   287  HIS287      0.0785
     36  CG        16.7670   -6.2110   -8.8220 C.ar  287  HIS287      0.0821
     37  ND1       16.9940   -7.2200   -7.9100 N.ar  287  HIS287     -0.2267
     38  CD2       15.4330   -5.9760   -8.8000 C.ar  287  HIS287      0.1154
     39  CE1       15.8500   -7.5680   -7.3450 C.ar  287  HIS287      0.1986
     40  NE2       14.8870   -6.8220   -7.8610 N.ar  287  HIS287     -0.2212
     41  N         19.4580   -5.7420   -6.5900 N.am  288  PRO288     -0.2716
     42  CA        20.2660   -6.6130   -5.7230 C.3   288  PRO288      0.1536
     43  C         20.3550   -8.0750   -6.1650 C.2   288  PRO288      0.2598
     44  O         21.3120   -8.7470   -5.8280 O.2   288  PRO288     -0.2715
     45  CB        19.5660   -6.5100   -4.3570 C.3   288  PRO288      0.0310
     46  CG        18.2150   -6.0310   -4.6610 C.3   288  PRO288      0.0237
     47  CD        18.4060   -5.0670   -5.8150 C.3   288  PRO288      0.0939
     48  N         19.3750   -8.5440   -6.9310 N.am  289  ARG289     -0.1978
     49  CA        19.3560   -9.9200   -7.3870 C.3   289  ARG289      0.1597
     50  C         19.7180  -10.0390   -8.8620 C.2   289  ARG289      0.2287
     51  O         19.5830  -11.1080   -9.4540 O.2   289  ARG289     -0.2864
     52  CB        17.9850  -10.5450   -7.0990 C.3   289  ARG289      0.0334
     53  CG        17.7520  -10.8320   -5.6200 C.3   289  ARG289      0.0492
     54  CD        16.4700  -11.6120   -5.4090 C.3   289  ARG289      0.2205
     55  NE        15.3180  -10.7140   -5.2950 N.pl3 289  ARG289     -0.0865
     56  CZ        14.4260  -10.4610   -6.2520 C.cat 289  ARG289      0.5346
     57  NH1       14.5150  -11.0300   -7.4550 N.pl3 289  ARG289      0.1354
     58  NH2       13.4300   -9.6230   -5.9960 N.pl3 289  ARG289      0.1354
     59  N         23.5570   -2.6270   -2.0830 N.3   311  ILE311     -0.1231
     60  CA        23.0860   -1.5070   -1.2650 C.3   311  ILE311      0.1692
     61  C         21.5880   -1.3030   -1.5590 C.2   311  ILE311      0.2593
     62  O         21.1720   -1.3400   -2.7270 O.2   311  ILE311     -0.2718
     63  CB        23.8850   -0.1900   -1.5710 C.3   311  ILE311      0.0266
     64  CG1       25.4050   -0.4020   -1.4000 C.3   311  ILE311      0.0019
     65  CG2       23.4270    0.9650   -0.6720 C.3   311  ILE311      0.0020
     66  CD1       26.2670    0.6860   -2.0730 C.3   311  ILE311      0.0001
     67  N         20.7800   -1.1450   -0.5050 N.am  312  SER312     -0.1938
     68  CA        19.3540   -0.8430   -0.6810 C.3   312  SER312      0.2055
     69  C         19.2510    0.5880   -1.1840 C.2   312  SER312      0.2643
     70  O         19.8640    1.5090   -0.5990 O.2   312  SER312     -0.2714
     71  CB        18.5600   -0.9830    0.6190 C.3   312  SER312      0.2130
     72  OG        18.5080   -2.3330    1.0980 O.3   312  SER312     -0.2179
     73  N         18.4480    0.7860   -2.2160 N.am  313  PHE313     -0.1959
     74  CA        18.2540    2.1230   -2.8140 C.3   313  PHE313      0.1771
     75  C         17.9360    3.1810   -1.7450 C.2   313  PHE313      0.2619
     76  O         18.4310    4.3110   -1.8260 O.2   313  PHE313     -0.2715
     77  CB        17.1770    2.1220   -3.9150 C.3   313  PHE313      0.0574
     78  CG        17.2190    3.3540   -4.8080 C.ar  313  PHE313     -0.0200
     79  CD1       16.5830    4.5290   -4.4250 C.ar  313  PHE313     -0.0042
     80  CD2       17.9310    3.3470   -5.9980 C.ar  313  PHE313     -0.0042
     81  CE1       16.6580    5.6870   -5.2090 C.ar  313  PHE313     -0.0003
     82  CE2       18.0120    4.5030   -6.7980 C.ar  313  PHE313     -0.0003
     83  CZ        17.3790    5.6710   -6.3990 C.ar  313  PHE313     -0.0000
     84  N         17.1390    2.8080   -0.7450 N.am  314  GLU314     -0.1977
     85  CA        16.6730    3.7500    0.2850 C.3   314  GLU314      0.1602
     86  C         17.8200    4.3110    1.1350 C.2   314  GLU314      0.2287
     87  O         17.6430    5.3070    1.8650 O.2   314  GLU314     -0.2864
     88  CB        15.6090    3.0950    1.1770 C.3   314  GLU314      0.0415
     89  CG        14.2710    2.8080    0.4770 C.3   314  GLU314      0.1163
     90  CD        14.2940    1.5650   -0.4090 C.2   314  GLU314      0.3649
     91  OE1       15.2710    0.7660   -0.3300 O.co2 314  GLU314     -0.2457
     92  OE2       13.3290    1.3980   -1.2070 O.co2 314  GLU314     -0.2457
     93  N         10.8600   -0.0430  -13.3980 N.3   330  ALA330     -0.1231
     94  CA        10.0210    0.1440  -12.2330 C.3   330  ALA330      0.1694
     95  C         10.4160   -0.7370  -11.0570 C.2   330  ALA330      0.2593
     96  O         10.8630   -1.8550  -11.2460 O.2   330  ALA330     -0.2718
     97  CB         8.5740   -0.1280  -12.5860 C.3   330  ALA330      0.0304
     98  N         10.2410   -0.1720   -9.8650 N.am  331  SER331     -0.1938
     99  CA        10.4300   -0.8180   -8.5610 C.3   331  SER331      0.2055
    100  C          9.6430   -0.0240   -7.5480 C.2   331  SER331      0.2644
    101  O          9.4390    1.1650   -7.7350 O.2   331  SER331     -0.2714
    102  CB        11.9140   -0.7590   -8.1400 C.3   331  SER331      0.2130
    103  OG        12.0900   -1.0520   -6.7490 O.3   331  SER331     -0.2179
    104  N          9.2490   -0.6780   -6.4530 N.am  332  SER332     -0.1935
    105  CA         8.5600   -0.0030   -5.3480 C.3   332  SER332      0.2055
    106  C          9.3730    1.1150   -4.7260 C.2   332  SER332      0.2642
    107  O          8.8420    1.9540   -3.9710 O.2   332  SER332     -0.2714
    108  CB         8.1960   -1.0220   -4.2570 C.3   332  SER332      0.2130
    109  OG         9.3500   -1.5920   -3.6810 O.3   332  SER332     -0.2179
    110  N         10.6760    1.1150   -4.9980 N.am  333  LEU333     -0.1977
    111  CA        11.5610    2.1510   -4.4740 C.3   333  LEU333      0.1596
    112  C         11.0910    3.5560   -4.9270 C.2   333  LEU333      0.2287
    113  O         11.3330    4.5540   -4.2490 O.2   333  LEU333     -0.2864
    114  CB        13.0150    1.8800   -4.9040 C.3   333  LEU333      0.0297
    115  CG        13.3550    2.1340   -6.3770 C.3   333  LEU333      0.0022
    116  CD1       13.6340    3.6120   -6.6510 C.3   333  LEU333      0.0001
    117  CD2       14.5260    1.2540   -6.8960 C.3   333  LEU333      0.0001
@<TRIPOS>BOND
     1    93    94    1
     2    10     9    2
     3    15    16    1
     4    15    14    1
     5     7     8    1
     6    97    94    1
     7    16    17    2
     8     9    14   am
     9     9     8    1
    10    94    95    1
    11    12    11    1
    12     8    11    1
    13    96    95    2
    14    11    13    1
    15    95    98   am
    16    18    19    1
    17    28    27    1
    18    28    29    1
    19    21    20    2
    20    27    20   am
    21    20    19    1
    22    98    99    1
    23    31    29   am
    24    31    32    1
    25    19    22    1
    26    35    36    1
    27    35    32    1
    28    51    50    2
    29    29    30    2
    30    50    49    1
    31    36    38   ar
    32    36    37   ar
    33    38    40   ar
    34    32    33    1
    35    22    23    1
    36    99   102    1
    37    99   100    1
    38    34    33    2
    39   102   103    1
    40    37    39   ar
    41    33    41   am
    42    40    39   ar
    43   101   100    2
    44    23    24    1
    45   100   104   am
    46    57    56    1
    47    49    52    1
    48    49    48    1
    49    52    53    1
    50    48    43   am
    51   117   115    1
    52    82    83   ar
    53    82    80   ar
    54   116   115    1
    55    41    47    1
    56    41    42    1
    57    24    25    1
    58   104   105    1
    59    25    26    1
    60    83    81   ar
    61   115   114    1
    62    56    58    1
    63    56    55    2
    64    43    44    2
    65    43    42    1
    66    80    78   ar
    67    47    46    1
    68    42    45    1
    69    53    54    1
    70    54    55    1
    71   105   106    1
    72   105   108    1
    73    81    79   ar
    74   110   106   am
    75   110   111    1
    76   112   111    1
    77   112   113    2
    78   114   111    1
    79    78    79   ar
    80    78    77    1
    81   106   107    2
    82    46    45    1
    83   108   109    1
    84    77    74    1
    85    74    73    1
    86    74    75    1
    87    62    61    2
    88    73    69   am
    89    59    60    1
    90    66    64    1
    91    76    75    2
    92    75    84   am
    93    63    64    1
    94    63    60    1
    95    63    65    1
    96    61    60    1
    97    61    67   am
    98    92    90   ar
    99    69    68    1
   100    69    70    2
   101    84    85    1
   102    68    67    1
   103    68    71    1
   104    90    91   ar
   105    90    89    1
   106    85    86    1
   107    85    88    1
   108    89    88    1
   109    71    72    1
   110    86    87    2
   111     6     5    1
   112     5     2    1
   113     2     1    1
   114     2     3    1
   115     3     4    2
