@<TRIPOS>MOLECULE
tmp/2iitA08.pdb
 185 181 0 0 0
SMALL
GASTEIGER

@<TRIPOS>ATOM
      1  N         37.4140   61.2130   36.4210 N.3    87  ARG87      -0.1231
      2  CA        38.3030   60.7650   37.4680 C.3    87  ARG87       0.1694
      3  C         39.5210   61.6650   37.6580 C.2    87  ARG87       0.2592
      4  O         39.8960   61.9850   38.7980 O.2    87  ARG87      -0.2718
      5  CB        38.7330   59.3270   37.2100 C.3    87  ARG87       0.0321
      6  CG        40.0290   58.9250   37.8900 C.3    87  ARG87       0.0489
      7  CD        39.9350   57.6140   38.6300 C.3    87  ARG87       0.2205
      8  NE        39.2900   56.5260   37.8890 N.pl3  87  ARG87      -0.0865
      9  CZ        38.6640   55.5290   38.5110 C.cat  87  ARG87       0.5346
     10  NH1       38.6360   55.5280   39.8290 N.pl3  87  ARG87       0.1354
     11  NH2       38.0470   54.5660   37.8440 N.pl3  87  ARG87       0.1354
     12  N         40.1280   62.1050   36.5610 N.am   88  HIS88      -0.1976
     13  CA        41.3060   62.9610   36.6800 C.3    88  HIS88       0.1656
     14  C         41.0890   64.3740   36.1430 C.2    88  HIS88       0.2291
     15  O         41.7120   65.3240   36.6260 O.2    88  HIS88      -0.2864
     16  CB        42.5060   62.3170   35.9600 C.3    88  HIS88       0.0771
     17  CG        42.7350   60.8840   36.3230 C.ar   88  HIS88       0.0820
     18  ND1       43.2600   60.4930   37.5380 N.ar   88  HIS88      -0.2267
     19  CD2       42.5100   59.7420   35.6290 C.ar   88  HIS88       0.1154
     20  CE1       43.3510   59.1750   37.5750 C.ar   88  HIS88       0.1986
     21  NE2       42.8990   58.6930   36.4270 N.ar   88  HIS88      -0.2212
     22  N         40.6210   57.7530   31.4190 N.3   167  GLU167     -0.1231
     23  CA        40.2960   56.6730   32.3290 C.3   167  GLU167      0.1699
     24  C         41.1210   55.3830   32.1930 C.2   167  GLU167      0.2592
     25  O         41.6130   54.8560   33.1900 O.2   167  GLU167     -0.2718
     26  CB        38.8050   56.3460   32.1740 C.3   167  GLU167      0.0402
     27  CG        38.3380   55.1070   32.8960 C.3   167  GLU167      0.1161
     28  CD        38.3190   55.2470   34.4080 C.2   167  GLU167      0.3649
     29  OE1       38.4710   56.3720   34.9470 O.co2 167  GLU167     -0.2457
     30  OE2       38.1350   54.2000   35.0600 O.co2 167  GLU167     -0.2457
     31  N         41.3040   54.9100   30.9630 N.am  168  GLU168     -0.1966
     32  CA        41.9690   53.6370   30.7350 C.3   168  GLU168      0.1733
     33  C         43.4290   53.5680   30.2950 C.2   168  GLU168      0.2616
     34  O         44.0690   52.5220   30.4590 O.2   168  GLU168     -0.2715
     35  CB        41.1480   52.8530   29.7140 C.3   168  GLU168      0.0429
     36  CG        39.6550   52.8410   29.9780 C.3   168  GLU168      0.1163
     37  CD        39.2980   52.0950   31.2470 C.2   168  GLU168      0.3649
     38  OE1       40.1970   51.5660   31.9190 O.co2 168  GLU168     -0.2457
     39  OE2       38.1080   52.0340   31.5590 O.co2 168  GLU168     -0.2457
     40  N         43.9600   54.6560   29.7440 N.am  169  VAL169     -0.1977
     41  CA        45.3200   54.6330   29.2250 C.3   169  VAL169      0.1596
     42  C         46.3170   55.4590   30.0180 C.2   169  VAL169      0.2287
     43  O         47.2310   54.9100   30.6320 O.2   169  VAL169     -0.2864
     44  CB        45.3250   55.0870   27.7290 C.3   169  VAL169      0.0276
     45  CG1       46.7500   55.0660   27.1590 C.3   169  VAL169      0.0022
     46  CG2       44.4170   54.1670   26.9040 C.3   169  VAL169      0.0022
     47  N         45.5160   57.6590   32.6210 N.3   171  SER171     -0.1217
     48  CA        45.1450   57.9390   34.0120 C.3   171  SER171      0.1889
     49  C         45.4870   59.3950   34.3130 C.2   171  SER171      0.2288
     50  O         46.0120   59.7250   35.3800 O.2   171  SER171     -0.2866
     51  CB        45.9160   57.0370   34.9780 C.3   171  SER171      0.2089
     52  OG        45.4310   55.7130   34.9340 O.3   171  SER171     -0.2183
     53  N         48.1710   46.7680   32.9430 N.3   319  PHE319     -0.1227
     54  CA        46.9930   47.4280   32.3970 C.3   319  PHE319      0.1736
     55  C         47.3940   48.0490   31.0520 C.2   319  PHE319      0.2595
     56  O         46.5390   48.3920   30.2300 O.2   319  PHE319     -0.2718
     57  CB        46.4720   48.4940   33.3580 C.3   319  PHE319      0.0547
     58  CG        45.8760   47.9320   34.6010 C.ar  319  PHE319     -0.0202
     59  CD1       44.5260   47.6120   34.6530 C.ar  319  PHE319     -0.0042
     60  CD2       46.6660   47.6830   35.7170 C.ar  319  PHE319     -0.0042
     61  CE1       43.9630   47.0510   35.7950 C.ar  319  PHE319     -0.0003
     62  CE2       46.1170   47.1200   36.8640 C.ar  319  PHE319     -0.0003
     63  CZ        44.7540   46.8020   36.8970 C.ar  319  PHE319     -0.0000
     64  N         48.7030   48.1760   30.8430 N.am  320  ARG320     -0.1980
     65  CA        49.2750   48.7090   29.5990 C.3   320  ARG320      0.1597
     66  C         50.7970   48.5150   29.6360 C.2   320  ARG320      0.2287
     67  O         51.3920   48.3850   30.7130 O.2   320  ARG320     -0.2864
     68  CB        48.9670   50.2000   29.4310 C.3   320  ARG320      0.0334
     69  CG        49.5770   51.0580   30.5240 C.3   320  ARG320      0.0492
     70  CD        49.5790   52.5330   30.1720 C.3   320  ARG320      0.2205
     71  NE        50.0130   53.3290   31.3130 N.pl3 320  ARG320     -0.0865
     72  CZ        50.4790   54.5720   31.2400 C.cat 320  ARG320      0.5346
     73  NH1       50.5850   55.1940   30.0630 N.pl3 320  ARG320      0.1354
     74  NH2       50.8420   55.1950   32.3510 N.pl3 320  ARG320      0.1354
     75  N         36.6560   42.3850   44.7240 N.3   509  TYR509     -0.1241
     76  CA        36.8590   43.2770   43.5900 C.3   509  TYR509      0.1605
     77  C         37.0740   42.2780   42.4770 C.2   509  TYR509      0.2264
     78  O         36.2160   42.1000   41.6180 O.2   509  TYR509     -0.2867
     79  CB        38.0830   44.1710   43.7280 C.3   509  TYR509      0.0534
     80  CG        38.1440   45.1410   42.5720 C.ar  509  TYR509     -0.0201
     81  CD1       39.1230   45.0340   41.5920 C.ar  509  TYR509     -0.0009
     82  CD2       37.1680   46.1330   42.4220 C.ar  509  TYR509     -0.0009
     83  CE1       39.1340   45.8920   40.4890 C.ar  509  TYR509      0.0417
     84  CE2       37.1630   46.9860   41.3250 C.ar  509  TYR509      0.0417
     85  CZ        38.1530   46.8570   40.3630 C.ar  509  TYR509      0.1957
     86  OH        38.1460   47.6900   39.2750 O.3   509  TYR509     -0.2866
     87  N         32.0110   48.3780   41.4100 N.3   592  SER592     -0.1202
     88  CA        32.6050   48.3170   40.0690 C.3   592  SER592      0.2020
     89  C         32.7400   46.8780   39.6280 C.2   592  SER592      0.2618
     90  O         31.7580   46.1460   39.5750 O.2   592  SER592     -0.2717
     91  CB        34.0010   48.9560   40.0340 C.3   592  SER592      0.2103
     92  OG        33.9670   50.2490   40.5890 O.3   592  SER592     -0.2182
     93  N         33.9660   46.4770   39.3140 N.am  593  TYR593     -0.1975
     94  CA        34.1950   45.1260   38.8770 C.3   593  TYR593      0.1639
     95  C         33.6920   44.2060   39.9880 C.2   593  TYR593      0.2290
     96  O         33.0990   43.1630   39.7170 O.2   593  TYR593     -0.2864
     97  CB        35.6810   44.9060   38.5870 C.3   593  TYR593      0.0560
     98  CG        35.9110   43.6680   37.7850 C.ar  593  TYR593     -0.0198
     99  CD1       35.7990   42.4020   38.3690 C.ar  593  TYR593     -0.0009
    100  CD2       36.1730   43.7470   36.4140 C.ar  593  TYR593     -0.0009
    101  CE1       35.9420   41.2450   37.6010 C.ar  593  TYR593      0.0417
    102  CE2       36.3070   42.5970   35.6390 C.ar  593  TYR593      0.0417
    103  CZ        36.1920   41.3540   36.2330 C.ar  593  TYR593      0.1957
    104  OH        36.3160   40.2230   35.4550 O.3   593  TYR593     -0.2866
    105  N         29.1040   46.2760   36.5480 N.3   618  VAL618     -0.1245
    106  CA        29.0600   46.0970   35.1120 C.3   618  VAL618      0.1561
    107  C         28.0890   44.9240   35.0280 C.2   618  VAL618      0.2260
    108  O         28.1350   44.0370   35.8840 O.2   618  VAL618     -0.2867
    109  CB        30.4480   45.6990   34.5700 C.3   618  VAL618      0.0252
    110  CG1       30.3240   44.8890   33.3040 C.3   618  VAL618      0.0019
    111  CG2       31.2600   46.9610   34.2950 C.3   618  VAL618      0.0019
    112  N         29.3320   43.0360   29.2740 N.3   621  TRP621     -0.1241
    113  CA        30.5050   43.7190   28.7740 C.3   621  TRP621      0.1605
    114  C         30.3470   44.6310   27.5780 C.2   621  TRP621      0.2264
    115  O         31.1450   45.5510   27.3930 O.2   621  TRP621     -0.2867
    116  CB        31.6520   42.7290   28.5820 C.3   621  TRP621      0.0550
    117  CG        32.1620   42.2420   29.9310 C.ar  621  TRP621      0.0003
    118  CD1       31.9630   41.0090   30.4880 C.ar  621  TRP621      0.0946
    119  CD2       32.8220   43.0320   30.9380 C.ar  621  TRP621      0.0152
    120  NE1       32.4410   40.9860   31.7710 N.ar  621  TRP621     -0.2442
    121  CE2       32.9690   42.2130   32.0790 C.ar  621  TRP621      0.0810
    122  CE3       33.2870   44.3550   30.9890 C.ar  621  TRP621      0.0012
    123  CZ2       33.5670   42.6690   33.2690 C.ar  621  TRP621      0.0191
    124  CZ3       33.8820   44.8150   32.1820 C.ar  621  TRP621      0.0001
    125  CH2       34.0100   43.9670   33.3040 C.ar  621  TRP621      0.0015
    126  N         30.3710   48.2480   28.6910 N.3   624  TYR624     -0.1241
    127  CA        31.5350   48.9290   29.2470 C.3   624  TYR624      0.1605
    128  C         32.4490   49.4510   28.1420 C.2   624  TYR624      0.2264
    129  O         32.2970   49.0520   26.9760 O.2   624  TYR624     -0.2867
    130  CB        32.2900   48.0320   30.2350 C.3   624  TYR624      0.0534
    131  CG        33.1270   48.8460   31.1830 C.ar  624  TYR624     -0.0201
    132  CD1       32.5480   49.8610   31.9640 C.ar  624  TYR624     -0.0009
    133  CD2       34.5160   48.6770   31.2430 C.ar  624  TYR624     -0.0009
    134  CE1       33.3340   50.6910   32.7670 C.ar  624  TYR624      0.0417
    135  CE2       35.3000   49.4960   32.0400 C.ar  624  TYR624      0.0417
    136  CZ        34.7090   50.5030   32.8020 C.ar  624  TYR624      0.1957
    137  OH        35.5150   51.2910   33.6110 O.3   624  TYR624     -0.2866
    138  N         39.2200   49.1320   28.0180 N.3   628  TYR628     -0.1241
    139  CA        39.3100   48.2070   29.1420 C.3   628  TYR628      0.1605
    140  C         38.7210   46.8340   28.8270 C.2   628  TYR628      0.2264
    141  O         39.3550   45.8130   29.0800 O.2   628  TYR628     -0.2867
    142  CB        38.5830   48.7760   30.3570 C.3   628  TYR628      0.0534
    143  CG        38.6410   47.8840   31.5730 C.ar  628  TYR628     -0.0201
    144  CD1       37.7180   46.8570   31.7640 C.ar  628  TYR628     -0.0009
    145  CD2       39.6180   48.0910   32.5600 C.ar  628  TYR628     -0.0009
    146  CE1       37.7510   46.0570   32.9140 C.ar  628  TYR628      0.0417
    147  CE2       39.6630   47.3020   33.7080 C.ar  628  TYR628      0.0417
    148  CZ        38.7200   46.2930   33.8780 C.ar  628  TYR628      0.1957
    149  OH        38.7310   45.5670   35.0400 O.3   628  TYR628     -0.2866
    150  N         40.5050   44.7250   26.0870 N.3   631  ARG631     -0.1245
    151  CA        41.8230   44.3040   26.5440 C.3   631  ARG631      0.1563
    152  C         41.7820   42.8660   27.0440 C.2   631  ARG631      0.2260
    153  O         42.7190   42.0910   26.8520 O.2   631  ARG631     -0.2867
    154  CB        42.3160   45.2070   27.6820 C.3   631  ARG631      0.0307
    155  CG        43.6780   44.7660   28.2380 C.3   631  ARG631      0.0489
    156  CD        44.1610   45.6730   29.3360 C.3   631  ARG631      0.2205
    157  NE        44.1420   47.0640   28.9020 N.pl3 631  ARG631     -0.0865
    158  CZ        43.6930   48.0610   29.6540 C.cat 631  ARG631      0.5346
    159  NH1       43.2270   47.8220   30.8760 N.pl3 631  ARG631      0.1354
    160  NH2       43.7080   49.2940   29.1830 N.pl3 631  ARG631      0.1354
    161  N         31.0580   56.4160   34.1100 N.3   672  ASN672     -0.1225
    162  CA        31.9750   55.2890   33.9330 C.3   672  ASN672      0.1785
    163  C         31.1360   54.0320   33.6280 C.2   672  ASN672      0.2597
    164  O         31.1030   53.5650   32.4840 O.2   672  ASN672     -0.2718
    165  CB        32.8080   55.1340   35.2150 C.3   672  ASN672      0.1169
    166  CG        34.0990   54.3480   35.0000 C.2   672  ASN672      0.2627
    167  OD1       34.1150   53.3080   34.3450 O.2   672  ASN672     -0.2716
    168  ND2       35.1850   54.8430   35.5690 N.am  672  ASN672     -0.0877
    169  N         30.4830   53.4860   34.6630 N.am  673  VAL673     -0.1980
    170  CA        29.5800   52.3300   34.5190 C.3   673  VAL673      0.1595
    171  C         28.2020   52.9890   34.4970 C.2   673  VAL673      0.2287
    172  O         27.6610   53.3960   35.5340 O.2   673  VAL673     -0.2864
    173  CB        29.6490   51.3600   35.7170 C.3   673  VAL673      0.0276
    174  CG1       28.6510   50.2140   35.5190 C.3   673  VAL673      0.0022
    175  CG2       31.0510   50.8220   35.8610 C.3   673  VAL673      0.0022
    176  N         30.3640   57.4330   39.5740 N.3   702  HIS702     -0.1241
    177  CA        30.8480   56.1190   39.9510 C.3   702  HIS702      0.1621
    178  C         31.4050   55.9620   41.3690 C.2   702  HIS702      0.2264
    179  O         31.4240   54.8640   41.9100 O.2   702  HIS702     -0.2867
    180  CB        31.8890   55.6580   38.9420 C.3   702  HIS702      0.0745
    181  CG        32.1700   54.2010   39.0110 C.ar  702  HIS702      0.0817
    182  ND1       31.1950   53.2520   38.7900 N.ar  702  HIS702     -0.2268
    183  CD2       33.3020   53.5230   39.3020 C.ar  702  HIS702      0.1154
    184  CE1       31.7180   52.0480   38.9400 C.ar  702  HIS702      0.1986
    185  NE2       32.9940   52.1850   39.2490 N.ar  702  HIS702     -0.2212
@<TRIPOS>BOND
     1   150   151    1
     2   151   152    1
     3   151   154    1
     4   153   152    2
     5    46    44    1
     6   129   128    2
     7    45    44    1
     8   115   114    2
     9   114   113    1
    10   154   155    1
    11    44    41    1
    12   138   139    1
    13   128   127    1
    14   155   156    1
    15   116   113    1
    16   116   117    1
    17   126   127    1
    18   113   112    1
    19   140   141    2
    20   140   139    1
    21   157   156    1
    22   157   158    2
    23   139   142    1
    24   160   158    1
    25    41    40    1
    26    41    42    1
    27   127   130    1
    28    68    65    1
    29    68    69    1
    30    65    66    1
    31    65    64    1
    32    66    67    2
    33   158   159    1
    34    35    36    1
    35    35    32    1
    36    40    33   am
    37   117   118   ar
    38   117   119   ar
    39    36    37    1
    40    42    43    2
    41    73    72    1
    42    70    69    1
    43    70    71    1
    44    56    55    2
    45   130   131    1
    46    33    34    2
    47    33    32    1
    48   142   143    1
    49   118   120   ar
    50    32    31    1
    51    64    55   am
    52   119   122   ar
    53   119   121   ar
    54    31    24   am
    55   122   124   ar
    56    55    54    1
    57   131   133   ar
    58   131   132   ar
    59    72    71    2
    60    72    74    1
    61   133   135   ar
    62    37    39   ar
    63    37    38   ar
    64    22    23    1
    65   143   144   ar
    66   143   145   ar
    67   144   146   ar
    68   120   121   ar
    69   132   134   ar
    70   135   136   ar
    71   121   123   ar
    72    26    23    1
    73    26    27    1
    74   124   125   ar
    75    24    23    1
    76    24    25    2
    77    54    53    1
    78    54    57    1
    79   164   163    2
    80   145   147   ar
    81    47    48    1
    82   134   136   ar
    83   136   137    1
    84    27    28    1
    85   146   148   ar
    86   123   125   ar
    87   110   109    1
    88    57    58    1
    89   163   162    1
    90   163   169   am
    91   147   148   ar
    92   148   149    1
    93   162   161    1
    94   162   165    1
    95    48    49    1
    96    48    51    1
    97   111   109    1
    98    49    50    2
    99   167   166    2
   100    28    29   ar
   101    28    30   ar
   102   171   170    1
   103   171   172    2
   104   170   169    1
   105   170   173    1
   106   109   106    1
   107    58    59   ar
   108    58    60   ar
   109    59    61   ar
   110    52    51    1
   111   166   165    1
   112   166   168   am
   113   107   106    1
   114   107   108    2
   115   106   105    1
   116   104   103    1
   117   174   173    1
   118    19    17   ar
   119    19    21   ar
   120   102   103   ar
   121   102   100   ar
   122    60    62   ar
   123   173   175    1
   124    61    63   ar
   125    16    17    1
   126    16    13    1
   127    14    15    2
   128    14    13    1
   129   103   101   ar
   130    17    18   ar
   131   100    98   ar
   132     1     2    1
   133    21    20   ar
   134    12    13    1
   135    12     3   am
   136    62    63   ar
   137     5     2    1
   138     5     6    1
   139     2     3    1
   140    18    20   ar
   141   101    99   ar
   142     3     4    2
   143    98    99   ar
   144    98    97    1
   145    11     9    1
   146     8     9    2
   147     8     7    1
   148     6     7    1
   149     9    10    1
   150    97    94    1
   151   182   184   ar
   152   182   181   ar
   153    94    93    1
   154    94    95    1
   155   184   185   ar
   156   180   181    1
   157   180   177    1
   158   181   183   ar
   159   185   183   ar
   160    86    85    1
   161    93    89   am
   162   176   177    1
   163    90    89    2
   164    89    88    1
   165    96    95    2
   166   177   178    1
   167    91    88    1
   168    91    92    1
   169    88    87    1
   170    85    83   ar
   171    85    84   ar
   172    83    81   ar
   173    84    82   ar
   174   178   179    2
   175    81    80   ar
   176    78    77    2
   177    82    80   ar
   178    77    76    1
   179    80    79    1
   180    76    79    1
   181    76    75    1
