@<TRIPOS>MOLECULE
tmp/2iivA07.pdb
 185 181 0 0 0
SMALL
GASTEIGER

@<TRIPOS>ATOM
      1  N         37.3860   61.3660   36.3780 N.3    87  ARG87      -0.1231
      2  CA        38.2700   60.9160   37.4460 C.3    87  ARG87       0.1694
      3  C         39.5200   61.7800   37.6720 C.2    87  ARG87       0.2592
      4  O         39.9360   61.9940   38.8140 O.2    87  ARG87      -0.2718
      5  CB        38.6650   59.4510   37.2240 C.3    87  ARG87       0.0321
      6  CG        39.9390   59.0500   37.9410 C.3    87  ARG87       0.0489
      7  CD        39.8600   57.7390   38.6410 C.3    87  ARG87       0.2205
      8  NE        39.1190   56.6930   37.9300 N.pl3  87  ARG87      -0.0865
      9  CZ        38.5480   55.6790   38.5780 C.cat  87  ARG87       0.5346
     10  NH1       38.6710   55.6310   39.8990 N.pl3  87  ARG87       0.1354
     11  NH2       37.8300   54.7520   37.9490 N.pl3  87  ARG87       0.1354
     12  N         40.1080   62.2990   36.5990 N.am   88  HIS88      -0.1976
     13  CA        41.3120   63.1330   36.7360 C.3    88  HIS88       0.1656
     14  C         41.1330   64.5610   36.2060 C.2    88  HIS88       0.2291
     15  O         41.8170   65.4830   36.6390 O.2    88  HIS88      -0.2864
     16  CB        42.4840   62.4880   35.9820 C.3    88  HIS88       0.0771
     17  CG        42.6830   61.0420   36.3010 C.ar   88  HIS88       0.0820
     18  ND1       43.2010   60.6110   37.5030 N.ar   88  HIS88      -0.2267
     19  CD2       42.4000   59.9250   35.5900 C.ar   88  HIS88       0.1154
     20  CE1       43.2290   59.2910   37.5200 C.ar   88  HIS88       0.1986
     21  NE2       42.7470   58.8500   36.3700 N.ar   88  HIS88      -0.2212
     22  N         40.5750   57.9600   31.5110 N.3   167  GLU167     -0.1231
     23  CA        40.2740   56.8910   32.4440 C.3   167  GLU167      0.1699
     24  C         41.1340   55.6270   32.3070 C.2   167  GLU167      0.2592
     25  O         41.6920   55.1500   33.2880 O.2   167  GLU167     -0.2718
     26  CB        38.7950   56.5080   32.3010 C.3   167  GLU167      0.0402
     27  CG        38.3240   55.2800   33.1110 C.3   167  GLU167      0.1161
     28  CD        38.3660   55.4830   34.6160 C.2   167  GLU167      0.3649
     29  OE1       38.4780   56.6430   35.0870 O.co2 167  GLU167     -0.2457
     30  OE2       38.2720   54.4620   35.3270 O.co2 167  GLU167     -0.2457
     31  N         41.2600   55.1230   31.0800 N.am  168  GLU168     -0.1966
     32  CA        41.9430   53.8650   30.8260 C.3   168  GLU168      0.1733
     33  C         43.3950   53.8090   30.3760 C.2   168  GLU168      0.2616
     34  O         44.0130   52.7570   30.4880 O.2   168  GLU168     -0.2715
     35  CB        41.1290   53.0690   29.8000 C.3   168  GLU168      0.0429
     36  CG        39.6260   53.0360   30.0770 C.3   168  GLU168      0.1163
     37  CD        39.2650   52.2230   31.3250 C.2   168  GLU168      0.3649
     38  OE1       40.1730   51.8160   32.0780 O.co2 168  GLU168     -0.2457
     39  OE2       38.0650   52.0120   31.5320 O.co2 168  GLU168     -0.2457
     40  N         43.9490   54.9040   29.8630 N.am  169  VAL169     -0.1977
     41  CA        45.3180   54.8470   29.3570 C.3   169  VAL169      0.1596
     42  C         46.3200   55.6560   30.1480 C.2   169  VAL169      0.2287
     43  O         47.2400   55.1020   30.7400 O.2   169  VAL169     -0.2864
     44  CB        45.3630   55.2800   27.8630 C.3   169  VAL169      0.0276
     45  CG1       46.8210   55.1870   27.3050 C.3   169  VAL169      0.0022
     46  CG2       44.4250   54.3870   27.0480 C.3   169  VAL169      0.0022
     47  N         45.4790   57.8000   32.7530 N.3   171  SER171     -0.1217
     48  CA        45.0710   58.1090   34.1290 C.3   171  SER171      0.1889
     49  C         45.4260   59.5720   34.4120 C.2   171  SER171      0.2288
     50  O         45.9510   59.9090   35.4690 O.2   171  SER171     -0.2866
     51  CB        45.8010   57.2060   35.1280 C.3   171  SER171      0.2089
     52  OG        45.3410   55.8720   35.0250 O.3   171  SER171     -0.2183
     53  N         48.2930   46.8860   32.7860 N.3   319  PHE319     -0.1227
     54  CA        47.1140   47.5560   32.2510 C.3   319  PHE319      0.1736
     55  C         47.4970   48.2180   30.9240 C.2   319  PHE319      0.2595
     56  O         46.6380   48.6800   30.1710 O.2   319  PHE319     -0.2718
     57  CB        46.5690   48.5930   33.2320 C.3   319  PHE319      0.0547
     58  CG        45.9140   47.9900   34.4370 C.ar  319  PHE319     -0.0202
     59  CD1       44.5810   47.6080   34.4030 C.ar  319  PHE319     -0.0042
     60  CD2       46.6380   47.8070   35.6130 C.ar  319  PHE319     -0.0042
     61  CE1       43.9600   47.0520   35.5160 C.ar  319  PHE319     -0.0003
     62  CE2       46.0320   47.2490   36.7460 C.ar  319  PHE319     -0.0003
     63  CZ        44.6830   46.8710   36.6930 C.ar  319  PHE319     -0.0000
     64  N         48.8000   48.2400   30.6420 N.am  320  ARG320     -0.1980
     65  CA        49.3500   48.7920   29.3910 C.3   320  ARG320      0.1597
     66  C         50.8740   48.5590   29.3800 C.2   320  ARG320      0.2287
     67  O         51.4720   48.3050   30.4290 O.2   320  ARG320     -0.2864
     68  CB        49.0540   50.2950   29.2710 C.3   320  ARG320      0.0334
     69  CG        49.6380   51.1310   30.3950 C.3   320  ARG320      0.0492
     70  CD        49.6310   52.6230   30.0730 C.3   320  ARG320      0.2205
     71  NE        50.0130   53.4280   31.2330 N.pl3 320  ARG320     -0.0865
     72  CZ        50.4710   54.6740   31.1720 C.cat 320  ARG320      0.5346
     73  NH1       50.6110   55.2810   29.9970 N.pl3 320  ARG320      0.1354
     74  NH2       50.8110   55.3010   32.2910 N.pl3 320  ARG320      0.1354
     75  N         36.6380   42.5860   44.6890 N.3   509  TYR509     -0.1241
     76  CA        36.8670   43.4840   43.5540 C.3   509  TYR509      0.1605
     77  C         37.1260   42.4700   42.4530 C.2   509  TYR509      0.2264
     78  O         36.2690   42.2400   41.6000 O.2   509  TYR509     -0.2867
     79  CB        38.0870   44.3930   43.7070 C.3   509  TYR509      0.0534
     80  CG        38.1850   45.3500   42.5230 C.ar  509  TYR509     -0.0201
     81  CD1       39.2570   45.2940   41.6180 C.ar  509  TYR509     -0.0009
     82  CD2       37.1580   46.2680   42.2700 C.ar  509  TYR509     -0.0009
     83  CE1       39.2950   46.1390   40.4780 C.ar  509  TYR509      0.0417
     84  CE2       37.1850   47.1070   41.1450 C.ar  509  TYR509      0.0417
     85  CZ        38.2510   47.0340   40.2580 C.ar  509  TYR509      0.1957
     86  OH        38.2460   47.8360   39.1480 O.3   509  TYR509     -0.2866
     87  N         31.8390   48.5190   41.5760 N.3   592  SER592     -0.1202
     88  CA        32.5030   48.5400   40.2780 C.3   592  SER592      0.2020
     89  C         32.7200   47.1130   39.7240 C.2   592  SER592      0.2618
     90  O         31.7700   46.3660   39.5760 O.2   592  SER592     -0.2717
     91  CB        33.8330   49.2840   40.4640 C.3   592  SER592      0.2103
     92  OG        34.3400   49.7410   39.2430 O.3   592  SER592     -0.2182
     93  N         33.9470   46.7200   39.4040 N.am  593  TYR593     -0.1975
     94  CA        34.1500   45.3690   38.8960 C.3   593  TYR593      0.1639
     95  C         33.6710   44.3990   39.9860 C.2   593  TYR593      0.2290
     96  O         33.1710   43.3130   39.7010 O.2   593  TYR593     -0.2864
     97  CB        35.6280   45.1170   38.5680 C.3   593  TYR593      0.0560
     98  CG        35.8680   43.8440   37.7610 C.ar  593  TYR593     -0.0198
     99  CD1       35.7870   42.5720   38.3560 C.ar  593  TYR593     -0.0009
    100  CD2       36.1320   43.9110   36.3850 C.ar  593  TYR593     -0.0009
    101  CE1       35.9640   41.3960   37.5880 C.ar  593  TYR593      0.0417
    102  CE2       36.3050   42.7590   35.6220 C.ar  593  TYR593      0.0417
    103  CZ        36.2230   41.5080   36.2230 C.ar  593  TYR593      0.1957
    104  OH        36.4240   40.3850   35.4600 O.3   593  TYR593     -0.2866
    105  N         29.0310   46.4330   36.6370 N.3   618  VAL618     -0.1245
    106  CA        28.9940   46.2240   35.2050 C.3   618  VAL618      0.1561
    107  C         28.0390   45.0320   35.1270 C.2   618  VAL618      0.2260
    108  O         28.0960   44.1410   35.9870 O.2   618  VAL618     -0.2867
    109  CB        30.3580   45.7970   34.6870 C.3   618  VAL618      0.0252
    110  CG1       30.2070   44.9760   33.4130 C.3   618  VAL618      0.0019
    111  CG2       31.2020   47.0340   34.4540 C.3   618  VAL618      0.0019
    112  N         29.4170   43.1580   29.3690 N.3   621  TRP621     -0.1241
    113  CA        30.6070   43.8290   28.8680 C.3   621  TRP621      0.1605
    114  C         30.4630   44.7610   27.6820 C.2   621  TRP621      0.2264
    115  O         31.2830   45.6680   27.5080 O.2   621  TRP621     -0.2867
    116  CB        31.7270   42.8080   28.6560 C.3   621  TRP621      0.0550
    117  CG        32.2060   42.3020   30.0130 C.ar  621  TRP621      0.0003
    118  CD1       31.9670   41.0770   30.5680 C.ar  621  TRP621      0.0946
    119  CD2       32.8560   43.0820   31.0300 C.ar  621  TRP621      0.0152
    120  NE1       32.4180   41.0490   31.8700 N.ar  621  TRP621     -0.2442
    121  CE2       32.9660   42.2670   32.1790 C.ar  621  TRP621      0.0810
    122  CE3       33.3490   44.3980   31.0830 C.ar  621  TRP621      0.0012
    123  CZ2       33.5520   42.7200   33.3710 C.ar  621  TRP621      0.0191
    124  CZ3       33.9330   44.8490   32.2760 C.ar  621  TRP621      0.0001
    125  CH2       34.0270   44.0080   33.4000 C.ar  621  TRP621      0.0015
    126  N         30.3720   48.4950   28.7600 N.3   624  TYR624     -0.1241
    127  CA        31.5570   49.1800   29.2780 C.3   624  TYR624      0.1605
    128  C         32.4850   49.7000   28.1760 C.2   624  TYR624      0.2264
    129  O         32.3060   49.3490   26.9960 O.2   624  TYR624     -0.2867
    130  CB        32.2890   48.2750   30.2690 C.3   624  TYR624      0.0534
    131  CG        33.1420   49.0700   31.2230 C.ar  624  TYR624     -0.0201
    132  CD1       32.5980   50.1350   31.9590 C.ar  624  TYR624     -0.0009
    133  CD2       34.5110   48.8320   31.3200 C.ar  624  TYR624     -0.0009
    134  CE1       33.4080   50.9430   32.7510 C.ar  624  TYR624      0.0417
    135  CE2       35.3210   49.6330   32.1130 C.ar  624  TYR624      0.0417
    136  CZ        34.7680   50.6860   32.8210 C.ar  624  TYR624      0.1957
    137  OH        35.5980   51.4760   33.5870 O.3   624  TYR624     -0.2866
    138  N         39.3170   49.2600   28.1260 N.3   628  TYR628     -0.1241
    139  CA        39.4440   48.3060   29.2130 C.3   628  TYR628      0.1605
    140  C         38.8190   46.9510   28.8610 C.2   628  TYR628      0.2264
    141  O         39.4490   45.9110   29.0260 O.2   628  TYR628     -0.2867
    142  CB        38.7860   48.8730   30.4700 C.3   628  TYR628      0.0534
    143  CG        38.7920   47.9590   31.6780 C.ar  628  TYR628     -0.0201
    144  CD1       37.7990   46.9860   31.8460 C.ar  628  TYR628     -0.0009
    145  CD2       39.7620   48.0970   32.6770 C.ar  628  TYR628     -0.0009
    146  CE1       37.7630   46.1810   32.9840 C.ar  628  TYR628      0.0417
    147  CE2       39.7390   47.2900   33.8270 C.ar  628  TYR628      0.0417
    148  CZ        38.7330   46.3380   33.9750 C.ar  628  TYR628      0.1957
    149  OH        38.6620   45.5660   35.1200 O.3   628  TYR628     -0.2866
    150  N         40.5470   44.7810   26.0420 N.3   631  ARG631     -0.1245
    151  CA        41.8540   44.3460   26.5010 C.3   631  ARG631      0.1563
    152  C         41.7910   42.9080   27.0100 C.2   631  ARG631      0.2260
    153  O         42.7110   42.1100   26.8030 O.2   631  ARG631     -0.2867
    154  CB        42.3490   45.2560   27.6320 C.3   631  ARG631      0.0307
    155  CG        43.6780   44.8160   28.2270 C.3   631  ARG631      0.0489
    156  CD        44.4430   46.0180   28.7320 C.3   631  ARG631      0.2205
    157  NE        43.7810   46.5820   29.8730 N.pl3 631  ARG631     -0.0865
    158  CZ        43.5270   47.8730   30.0520 C.cat 631  ARG631      0.5346
    159  NH1       43.8710   48.7850   29.1550 N.pl3 631  ARG631      0.1354
    160  NH2       42.9520   48.2440   31.1690 N.pl3 631  ARG631      0.1354
    161  N         31.0470   56.5360   34.1740 N.3   672  ASN672     -0.1225
    162  CA        31.9760   55.4220   33.9810 C.3   672  ASN672      0.1785
    163  C         31.2030   54.1370   33.6930 C.2   672  ASN672      0.2597
    164  O         31.2630   53.6060   32.5830 O.2   672  ASN672     -0.2718
    165  CB        32.8450   55.2630   35.2290 C.3   672  ASN672      0.1169
    166  CG        34.1080   54.4720   34.9540 C.2   672  ASN672      0.2627
    167  OD1       34.0970   53.5310   34.1620 O.2   672  ASN672     -0.2716
    168  ND2       35.2000   54.8440   35.6080 N.am  672  ASN672     -0.0877
    169  N         30.5160   53.6280   34.7170 N.am  673  VAL673     -0.1980
    170  CA        29.6480   52.4500   34.5990 C.3   673  VAL673      0.1595
    171  C         28.2450   53.0890   34.5440 C.2   673  VAL673      0.2287
    172  O         27.6760   53.5030   35.5650 O.2   673  VAL673     -0.2864
    173  CB        29.7690   51.5260   35.8330 C.3   673  VAL673      0.0276
    174  CG1       28.7840   50.3510   35.7120 C.3   673  VAL673      0.0022
    175  CG2       31.1890   51.0140   35.9330 C.3   673  VAL673      0.0022
    176  N         30.3800   57.5260   39.6100 N.3   702  HIS702     -0.1241
    177  CA        30.9060   56.2270   39.9990 C.3   702  HIS702      0.1621
    178  C         31.4600   56.1650   41.4210 C.2   702  HIS702      0.2264
    179  O         31.5140   55.0920   42.0270 O.2   702  HIS702     -0.2867
    180  CB        31.9830   55.7790   39.0090 C.3   702  HIS702      0.0745
    181  CG        32.2250   54.3060   39.0150 C.ar  702  HIS702      0.0817
    182  ND1       31.2150   53.3890   38.8070 N.ar  702  HIS702     -0.2268
    183  CD2       33.3620   53.5850   39.1860 C.ar  702  HIS702      0.1154
    184  CE1       31.7200   52.1670   38.8470 C.ar  702  HIS702      0.1986
    185  NE2       33.0190   52.2570   39.0740 N.ar  702  HIS702     -0.2212
@<TRIPOS>BOND
     1   150   151    1
     2   151   152    1
     3   151   154    1
     4   153   152    2
     5   129   128    2
     6    46    44    1
     7    45    44    1
     8   115   114    2
     9   154   155    1
    10   114   113    1
    11    44    41    1
    12   138   139    1
    13   128   127    1
    14   155   156    1
    15   116   113    1
    16   116   117    1
    17   156   157    1
    18   126   127    1
    19   140   141    2
    20   140   139    1
    21   113   112    1
    22   159   158    1
    23   139   142    1
    24    68    65    1
    25    68    69    1
    26   127   130    1
    27    41    40    1
    28    41    42    1
    29    66    65    1
    30    66    67    2
    31    65    64    1
    32    35    36    1
    33    35    32    1
    34    40    33   am
    35   157   158    2
    36    73    72    1
    37   117   118   ar
    38   117   119   ar
    39   158   160    1
    40    70    69    1
    41    70    71    1
    42    36    37    1
    43    42    43    2
    44    56    55    2
    45   130   131    1
    46    33    34    2
    47    33    32    1
    48   142   143    1
    49   118   120   ar
    50    64    55   am
    51    32    31    1
    52    55    54    1
    53   119   122   ar
    54   119   121   ar
    55    31    24   am
    56   122   124   ar
    57    72    71    2
    58    72    74    1
    59   131   133   ar
    60   131   132   ar
    61   133   135   ar
    62    37    39   ar
    63    37    38   ar
    64    22    23    1
    65   143   144   ar
    66   143   145   ar
    67   144   146   ar
    68   120   121   ar
    69   132   134   ar
    70   135   136   ar
    71   121   123   ar
    72    54    53    1
    73    54    57    1
    74   124   125   ar
    75    26    23    1
    76    26    27    1
    77    24    23    1
    78    24    25    2
    79   164   163    2
    80   145   147   ar
    81   134   136   ar
    82    47    48    1
    83   136   137    1
    84   146   148   ar
    85    27    28    1
    86    57    58    1
    87   123   125   ar
    88   110   109    1
    89   163   162    1
    90   163   169   am
    91   147   148   ar
    92   148   149    1
    93   162   161    1
    94   162   165    1
    95    48    49    1
    96    48    51    1
    97   167   166    2
    98    59    58   ar
    99    59    61   ar
   100    49    50    2
   101    58    60   ar
   102   111   109    1
   103   171   170    1
   104   171   172    2
   105   170   169    1
   106   170   173    1
   107    28    29   ar
   108    28    30   ar
   109   109   106    1
   110   166   165    1
   111   166   168   am
   112    52    51    1
   113   107   106    1
   114   107   108    2
   115   106   105    1
   116   104   103    1
   117    61    63   ar
   118    19    17   ar
   119    19    21   ar
   120    60    62   ar
   121   102   103   ar
   122   102   100   ar
   123   174   173    1
   124   173   175    1
   125    16    17    1
   126    16    13    1
   127    14    15    2
   128    14    13    1
   129   103   101   ar
   130    17    18   ar
   131    21    20   ar
   132     1     2    1
   133   100    98   ar
   134    12    13    1
   135    12     3   am
   136    63    62   ar
   137     5     2    1
   138     5     6    1
   139     2     3    1
   140    18    20   ar
   141   101    99   ar
   142     3     4    2
   143    98    99   ar
   144    98    97    1
   145     8     9    2
   146     8     7    1
   147     6     7    1
   148    11     9    1
   149    97    94    1
   150     9    10    1
   151   182   184   ar
   152   182   181   ar
   153   184   185   ar
   154    94    93    1
   155    94    95    1
   156   180   181    1
   157   180   177    1
   158   181   183   ar
   159   185   183   ar
   160    86    85    1
   161    92    91    1
   162    93    89   am
   163    90    89    2
   164   176   177    1
   165    96    95    2
   166    89    88    1
   167   177   178    1
   168    85    83   ar
   169    85    84   ar
   170    88    91    1
   171    88    87    1
   172    83    81   ar
   173    84    82   ar
   174   178   179    2
   175    78    77    2
   176    81    80   ar
   177    82    80   ar
   178    77    76    1
   179    80    79    1
   180    76    79    1
   181    76    75    1
