@<TRIPOS>MOLECULE
tmp/2iizA00.pdb
 242 229 0 0 0
SMALL
GASTEIGER

@<TRIPOS>ATOM
      1  N        -31.7150  -15.0210  -10.9480 N.3   135  ASP135     -0.1239
      2  CA       -30.6020  -14.1040  -10.7810 C.3   135  ASP135      0.1674
      3  C        -30.9820  -13.2800   -9.5820 C.2   135  ASP135      0.2266
      4  O        -32.1590  -13.2520   -9.2050 O.2   135  ASP135     -0.2867
      5  CB       -30.4620  -13.2270  -12.0340 C.3   135  ASP135      0.1410
      6  CG       -29.4090  -12.1310  -11.8890 C.2   135  ASP135      0.3668
      7  OD1      -28.2110  -12.4110  -12.0890 O.co2 135  ASP135     -0.2456
      8  OD2      -29.7960  -10.9810  -11.5830 O.co2 135  ASP135     -0.2456
      9  N        -31.4200  -10.3000   -9.2800 N.3   137  THR137     -0.1218
     10  CA       -32.4540   -9.3350   -9.6780 C.3   137  THR137      0.1862
     11  C        -33.8870   -9.8120   -9.3640 C.2   137  THR137      0.2287
     12  O        -34.8200   -9.0090   -9.3390 O.2   137  THR137     -0.2866
     13  CB       -32.3600   -8.9710  -11.1840 C.3   137  THR137      0.1770
     14  OG1      -32.2840  -10.1570  -11.9940 O.3   137  THR137     -0.2211
     15  CG2      -31.1240   -8.1800  -11.4320 C.3   137  THR137      0.0375
     16  N        -35.4050  -12.2160  -11.2010 N.3   139  PHE139     -0.1227
     17  CA       -35.9040  -12.7870  -12.4670 C.3   139  PHE139      0.1736
     18  C        -35.2510  -14.1250  -12.7740 C.2   139  PHE139      0.2595
     19  O        -34.0570  -14.2980  -12.5210 O.2   139  PHE139     -0.2718
     20  CB       -35.5860  -11.8420  -13.6340 C.3   139  PHE139      0.0547
     21  CG       -36.4650  -10.6240  -13.6780 C.ar  139  PHE139     -0.0202
     22  CD1      -36.2700   -9.5830  -12.7780 C.ar  139  PHE139     -0.0042
     23  CD2      -37.4910  -10.5170  -14.6200 C.ar  139  PHE139     -0.0042
     24  CE1      -37.0740   -8.4670  -12.8050 C.ar  139  PHE139     -0.0003
     25  CE2      -38.3050   -9.3880  -14.6470 C.ar  139  PHE139     -0.0003
     26  CZ       -38.0950   -8.3670  -13.7480 C.ar  139  PHE139     -0.0000
     27  N        -36.0240  -15.0620  -13.3250 N.am  140  VAL140     -0.1966
     28  CA       -35.5480  -16.4060  -13.6300 C.3   140  VAL140      0.1727
     29  C        -34.5370  -16.3430  -14.7510 C.2   140  VAL140      0.2616
     30  O        -34.8290  -15.7930  -15.7950 O.2   140  VAL140     -0.2715
     31  CB       -36.7220  -17.3450  -14.0610 C.3   140  VAL140      0.0290
     32  CG1      -36.2290  -18.7330  -14.5270 C.3   140  VAL140      0.0023
     33  CG2      -37.7330  -17.5220  -12.9290 C.3   140  VAL140      0.0023
     34  N        -33.3480  -16.9040  -14.5330 N.am  141  ASP141     -0.1957
     35  CA       -32.2880  -16.9420  -15.5540 C.3   141  ASP141      0.1840
     36  C        -32.1640  -18.3820  -16.0370 C.2   141  ASP141      0.2623
     37  O        -32.0570  -19.2970  -15.1990 O.2   141  ASP141     -0.2715
     38  CB       -30.9570  -16.4830  -14.9500 C.3   141  ASP141      0.1450
     39  CG       -29.8400  -16.2970  -15.9990 C.2   141  ASP141      0.3671
     40  OD1      -30.1110  -15.9200  -17.1660 O.co2 141  ASP141     -0.2456
     41  OD2      -28.6690  -16.5290  -15.6400 O.co2 141  ASP141     -0.2456
     42  N        -32.1860  -18.5800  -17.3650 N.am  142  GLY142     -0.1940
     43  CA       -31.9810  -19.9090  -17.9940 C.3   142  GLY142      0.2014
     44  C        -33.0210  -20.3550  -19.0300 C.2   142  GLY142      0.2640
     45  O        -32.7930  -21.2750  -19.8320 O.2   142  GLY142     -0.2714
     46  N        -34.1740  -19.6990  -19.0080 N.am  143  THR143     -0.1936
     47  CA       -35.3770  -20.2120  -19.6290 C.3   143  THR143      0.2028
     48  C        -35.2070  -20.6070  -21.1060 C.2   143  THR143      0.2642
     49  O        -35.6360  -21.6840  -21.5020 O.2   143  THR143     -0.2714
     50  CB       -36.4890  -19.1770  -19.4640 C.3   143  THR143      0.1808
     51  OG1      -36.6950  -18.9500  -18.0620 O.3   143  THR143     -0.2208
     52  CG2      -37.7850  -19.6460  -20.1260 C.3   143  THR143      0.0379
     53  N        -34.5850  -19.7410  -21.9090 N.am  144  GLU144     -0.1976
     54  CA       -34.4750  -19.9700  -23.3610 C.3   144  GLU144      0.1602
     55  C        -33.1510  -20.6120  -23.7810 C.2   144  GLU144      0.2287
     56  O        -32.8030  -20.6120  -24.9660 O.2   144  GLU144     -0.2864
     57  CB       -34.6830  -18.6610  -24.1140 C.3   144  GLU144      0.0415
     58  CG       -36.1320  -18.1820  -24.1000 C.3   144  GLU144      0.1163
     59  CD       -37.0530  -19.0710  -24.9250 C.2   144  GLU144      0.3649
     60  OE1      -36.7890  -19.2370  -26.1390 O.co2 144  GLU144     -0.2457
     61  OE2      -38.0370  -19.5980  -24.3510 O.co2 144  GLU144     -0.2457
     62  N        -17.7150  -13.4670  -17.6710 N.3   173  GLN173     -0.1245
     63  CA       -17.8000  -12.0870  -17.2060 C.3   173  GLN173      0.1566
     64  C        -18.2950  -12.1210  -15.7780 C.2   173  GLN173      0.2260
     65  O        -19.3720  -12.6380  -15.5200 O.2   173  GLN173     -0.2867
     66  CB       -18.7890  -11.2740  -18.0450 C.3   173  GLN173      0.0367
     67  CG       -18.4000  -11.0660  -19.5020 C.3   173  GLN173      0.0905
     68  CD       -19.2000   -9.9290  -20.1410 C.2   173  GLN173      0.2608
     69  OE1      -20.3230  -10.1350  -20.6130 O.2   173  GLN173     -0.2717
     70  NE2      -18.6250   -8.7210  -20.1450 N.am  173  GLN173     -0.0878
     71  N        -20.0770  -10.2070  -13.3050 N.3   175  TYR175     -0.1241
     72  CA       -20.9790   -9.0560  -13.2000 C.3   175  TYR175      0.1605
     73  C        -21.3060   -8.7330  -11.7350 C.2   175  TYR175      0.2264
     74  O        -21.8900   -9.5510  -11.0120 O.2   175  TYR175     -0.2867
     75  CB       -22.2790   -9.2960  -13.9750 C.3   175  TYR175      0.0534
     76  CG       -22.2020   -9.1050  -15.4890 C.ar  175  TYR175     -0.0201
     77  CD1      -22.4170   -7.8730  -16.0570 C.ar  175  TYR175     -0.0009
     78  CD2      -21.9280  -10.1590  -16.3340 C.ar  175  TYR175     -0.0009
     79  CE1      -22.3570   -7.6810  -17.4510 C.ar  175  TYR175      0.0417
     80  CE2      -21.8600   -9.9890  -17.7340 C.ar  175  TYR175      0.0417
     81  CZ       -22.0780   -8.7440  -18.2790 C.ar  175  TYR175      0.1957
     82  OH       -22.0190   -8.5520  -19.6440 O.3   175  TYR175     -0.2866
     83  N        -23.6100   -6.6120   -9.5460 N.3   177  HIS177     -0.1241
     84  CA       -24.8860   -5.9270   -9.6520 C.3   177  HIS177      0.1621
     85  C        -24.8910   -4.7880   -8.6380 C.2   177  HIS177      0.2264
     86  O        -24.2860   -4.9040   -7.5640 O.2   177  HIS177     -0.2867
     87  CB       -26.0560   -6.8780   -9.3240 C.3   177  HIS177      0.0745
     88  CG       -26.2740   -7.9700  -10.3220 C.ar  177  HIS177      0.0817
     89  ND1      -25.5460   -8.0820  -11.4860 N.ar  177  HIS177     -0.2268
     90  CD2      -27.1610   -8.9960  -10.3320 C.ar  177  HIS177      0.1154
     91  CE1      -25.9660   -9.1400  -12.1660 C.ar  177  HIS177      0.1986
     92  NE2      -26.9490   -9.7090  -11.4890 N.ar  177  HIS177     -0.2212
     93  N        -35.9330   -6.2700  -18.6440 N.3   194  ILE194     -0.1245
     94  CA       -35.6510   -7.6480  -19.0360 C.3   194  ILE194      0.1561
     95  C        -36.4660   -8.1080  -20.2370 C.2   194  ILE194      0.2260
     96  O        -35.9340   -8.8290  -21.0610 O.2   194  ILE194     -0.2867
     97  CB       -35.7680   -8.5710  -17.8420 C.3   194  ILE194      0.0252
     98  CG1      -34.5260   -8.3260  -16.9790 C.3   194  ILE194      0.0019
     99  CG2      -35.8470  -10.0630  -18.2880 C.3   194  ILE194      0.0019
    100  CD1      -34.7430   -8.5730  -15.5790 C.3   194  ILE194      0.0001
    101  N        -39.4940   -9.6900  -19.7590 N.3   196  ARG196     -0.1245
    102  CA       -40.3540  -10.7560  -19.2470 C.3   196  ARG196      0.1563
    103  C        -40.9790  -10.2960  -17.9310 C.2   196  ARG196      0.2260
    104  O        -40.4150   -9.4310  -17.2650 O.2   196  ARG196     -0.2867
    105  CB       -39.5360  -12.0290  -19.0260 C.3   196  ARG196      0.0307
    106  CG       -38.7740  -12.4880  -20.2580 C.3   196  ARG196      0.0489
    107  CD       -37.9570  -13.7110  -19.9740 C.3   196  ARG196      0.2205
    108  NE       -38.7840  -14.9010  -19.9070 N.pl3 196  ARG196     -0.0865
    109  CZ       -38.9930  -15.7380  -20.9210 C.cat 196  ARG196      0.5346
    110  NH1      -38.4420  -15.5390  -22.1130 N.pl3 196  ARG196      0.1354
    111  NH2      -39.7700  -16.7920  -20.7400 N.pl3 196  ARG196      0.1354
    112  N        -42.7840  -14.3340  -21.2080 N.3   203  GLU203     -0.1245
    113  CA       -42.1070  -13.5660  -22.2370 C.3   203  GLU203      0.1567
    114  C        -43.0820  -12.5580  -22.7980 C.2   203  GLU203      0.2260
    115  O        -44.2140  -12.9190  -23.0970 O.2   203  GLU203     -0.2867
    116  CB       -41.5880  -14.4970  -23.3440 C.3   203  GLU203      0.0388
    117  CG       -40.7680  -13.7930  -24.4350 C.3   203  GLU203      0.1160
    118  CD       -40.0240  -14.7460  -25.3830 C.2   203  GLU203      0.3649
    119  OE1      -40.2790  -15.9710  -25.3760 O.co2 203  GLU203     -0.2457
    120  OE2      -39.1690  -14.2480  -26.1460 O.co2 203  GLU203     -0.2457
    121  N        -33.2520   -6.4310  -22.3070 N.3   214  HIS214     -0.1226
    122  CA       -32.2180   -7.4710  -22.3890 C.3   214  HIS214      0.1752
    123  C        -32.4830   -8.5450  -23.4530 C.2   214  HIS214      0.2595
    124  O        -31.5920   -8.8640  -24.2280 O.2   214  HIS214     -0.2718
    125  CB       -32.0050   -8.1680  -21.0310 C.3   214  HIS214      0.0759
    126  CG       -30.7910   -9.0380  -20.9860 C.ar  214  HIS214      0.0818
    127  ND1      -29.5930   -8.6800  -21.5650 N.ar  214  HIS214     -0.2268
    128  CD2      -30.5880  -10.2530  -20.4260 C.ar  214  HIS214      0.1154
    129  CE1      -28.7060   -9.6390  -21.3670 C.ar  214  HIS214      0.1986
    130  NE2      -29.2830  -10.6070  -20.6750 N.ar  214  HIS214     -0.2212
    131  N        -33.6990   -9.0850  -23.4750 N.am  215  ILE215     -0.1980
    132  CA       -34.0870  -10.2240  -24.3450 C.3   215  ILE215      0.1595
    133  C        -34.2660   -9.8200  -25.8190 C.2   215  ILE215      0.2287
    134  O        -34.1670  -10.6660  -26.7300 O.2   215  ILE215     -0.2864
    135  CB       -35.4450  -10.8510  -23.8560 C.3   215  ILE215      0.0276
    136  CG1      -35.3720  -11.2280  -22.3930 C.3   215  ILE215      0.0022
    137  CG2      -35.8180  -12.0870  -24.6080 C.3   215  ILE215      0.0022
    138  CD1      -34.1290  -11.9100  -22.0180 C.3   215  ILE215      0.0001
    139  N        -30.3770   -9.4720  -27.0450 N.3   218  VAL218     -0.1231
    140  CA       -29.5560  -10.6870  -27.1400 C.3   218  VAL218      0.1692
    141  C        -30.2410  -11.8680  -27.8520 C.2   218  VAL218      0.2592
    142  O        -29.6980  -12.9770  -27.8690 O.2   218  VAL218     -0.2718
    143  CB       -29.1190  -11.1870  -25.7340 C.3   218  VAL218      0.0266
    144  CG1      -28.3330  -10.1210  -24.9910 C.3   218  VAL218      0.0020
    145  CG2      -30.3300  -11.6080  -24.9390 C.3   218  VAL218      0.0020
    146  N        -31.4220  -11.6500  -28.4200 N.am  219  ASN219     -0.1974
    147  CA       -32.0160  -12.6070  -29.3500 C.3   219  ASN219      0.1688
    148  C        -31.7740  -12.1020  -30.7620 C.2   219  ASN219      0.2292
    149  O        -32.4540  -11.1910  -31.2220 O.2   219  ASN219     -0.2864
    150  CB       -33.5210  -12.7990  -29.1180 C.3   219  ASN219      0.1181
    151  CG       -34.1140  -13.8860  -30.0160 C.2   219  ASN219      0.2629
    152  OD1      -34.2500  -13.7000  -31.2390 O.2   219  ASN219     -0.2716
    153  ND2      -34.4650  -15.0290  -29.4180 N.am  219  ASN219     -0.0877
    154  N        -29.1040  -17.3770  -33.6090 N.3   228  ILE228     -0.1231
    155  CA       -27.7240  -17.3890  -33.1730 C.3   228  ILE228      0.1692
    156  C        -27.7490  -17.6400  -31.6660 C.2   228  ILE228      0.2592
    157  O        -28.1530  -16.7510  -30.9010 O.2   228  ILE228     -0.2718
    158  CB       -27.0870  -16.0170  -33.4580 C.3   228  ILE228      0.0266
    159  CG1      -27.3390  -15.5860  -34.9130 C.3   228  ILE228      0.0019
    160  CG2      -25.6070  -16.0340  -33.1270 C.3   228  ILE228      0.0020
    161  CD1      -27.0810  -16.6470  -35.9590 C.3   228  ILE228      0.0001
    162  N        -27.3200  -18.8340  -31.2450 N.am  229  GLU229     -0.1966
    163  CA       -27.5170  -19.2950  -29.8590 C.3   229  GLU229      0.1733
    164  C        -26.2250  -19.4630  -29.0860 C.2   229  GLU229      0.2616
    165  O        -25.1630  -19.6010  -29.6730 O.2   229  GLU229     -0.2715
    166  CB       -28.2640  -20.6400  -29.8540 C.3   229  GLU229      0.0429
    167  CG       -29.7940  -20.5420  -29.9160 C.3   229  GLU229      0.1163
    168  CD       -30.4470  -21.9050  -30.1040 C.2   229  GLU229      0.3649
    169  OE1      -30.4230  -22.4170  -31.2430 O.co2 229  GLU229     -0.2457
    170  OE2      -30.9810  -22.4660  -29.1130 O.co2 229  GLU229     -0.2457
    171  N        -26.3350  -19.4470  -27.7590 N.am  230  ILE230     -0.1977
    172  CA       -25.2710  -19.9080  -26.8850 C.3   230  ILE230      0.1596
    173  C        -25.8800  -20.7440  -25.7590 C.2   230  ILE230      0.2287
    174  O        -27.0990  -20.6800  -25.5030 O.2   230  ILE230     -0.2864
    175  CB       -24.4640  -18.7520  -26.2590 C.3   230  ILE230      0.0276
    176  CG1      -25.3820  -17.7600  -25.5490 C.3   230  ILE230      0.0022
    177  CG2      -23.6380  -18.0310  -27.3130 C.3   230  ILE230      0.0022
    178  CD1      -24.7180  -17.0940  -24.3660 C.3   230  ILE230      0.0001
    179  N        -25.6570  -20.9240  -21.9260 N.3   232  ARG232     -0.1245
    180  CA       -25.1440  -20.2590  -20.7440 C.3   232  ARG232      0.1563
    181  C        -25.1470  -21.1950  -19.5750 C.2   232  ARG232      0.2260
    182  O        -26.0290  -22.0450  -19.4530 O.2   232  ARG232     -0.2867
    183  CB       -26.0150  -19.0790  -20.3840 C.3   232  ARG232      0.0307
    184  CG       -25.9300  -17.9340  -21.3350 C.3   232  ARG232      0.0489
    185  CD       -27.1290  -17.0400  -21.1140 C.3   232  ARG232      0.2205
    186  NE       -28.3420  -17.6550  -21.6650 N.pl3 232  ARG232     -0.0865
    187  CZ       -29.5740  -17.4930  -21.1950 C.cat 232  ARG232      0.5346
    188  NH1      -29.8110  -16.7300  -20.1250 N.pl3 232  ARG232      0.1354
    189  NH2      -30.5740  -18.1080  -21.8030 N.pl3 232  ARG232      0.1354
    190  N        -23.7800  -11.7860  -10.9550 N.3   244  LEU244     -0.1245
    191  CA       -23.8530  -12.9460  -11.8060 C.3   244  LEU244      0.1561
    192  C        -22.4770  -13.3070  -12.3340 C.2   244  LEU244      0.2260
    193  O        -21.7290  -12.4480  -12.8300 O.2   244  LEU244     -0.2867
    194  CB       -24.7600  -12.6820  -13.0280 C.3   244  LEU244      0.0270
    195  CG       -25.1040  -13.9270  -13.8480 C.3   244  LEU244      0.0019
    196  CD1      -26.0560  -14.7720  -13.0630 C.3   244  LEU244      0.0001
    197  CD2      -25.6980  -13.6260  -15.2190 C.3   244  LEU244      0.0001
    198  N        -21.3380  -14.6760  -15.1970 N.3   245  PHE245     -0.1241
    199  CA       -21.7720  -15.0030  -16.5220 C.3   245  PHE245      0.1605
    200  C        -20.7950  -15.8880  -17.2580 C.2   245  PHE245      0.2264
    201  O        -19.6100  -15.5530  -17.3960 O.2   245  PHE245     -0.2867
    202  CB       -22.0180  -13.7750  -17.3760 C.3   245  PHE245      0.0534
    203  CG       -22.5260  -14.1290  -18.7150 C.ar  245  PHE245     -0.0203
    204  CD1      -23.8820  -14.2840  -18.9220 C.ar  245  PHE245     -0.0042
    205  CD2      -21.6470  -14.3310  -19.7690 C.ar  245  PHE245     -0.0042
    206  CE1      -24.3790  -14.6200  -20.1700 C.ar  245  PHE245     -0.0003
    207  CE2      -22.1230  -14.6690  -21.0320 C.ar  245  PHE245     -0.0003
    208  CZ       -23.5000  -14.8160  -21.2390 C.ar  245  PHE245     -0.0000
    209  N        -21.3720  -15.1270  -28.7200 N.3   255  PHE255     -0.1241
    210  CA       -21.2840  -14.2630  -27.5230 C.3   255  PHE255      0.1605
    211  C        -20.9130  -12.8200  -27.9050 C.2   255  PHE255      0.2264
    212  O        -21.4670  -11.8790  -27.3640 O.2   255  PHE255     -0.2867
    213  CB       -20.2580  -14.8220  -26.5450 C.3   255  PHE255      0.0534
    214  CG       -19.7830  -13.8270  -25.4980 C.ar  255  PHE255     -0.0203
    215  CD1      -20.4980  -13.6290  -24.3330 C.ar  255  PHE255     -0.0042
    216  CD2      -18.6110  -13.0990  -25.6850 C.ar  255  PHE255     -0.0042
    217  CE1      -20.0570  -12.7180  -23.3730 C.ar  255  PHE255     -0.0003
    218  CE2      -18.1730  -12.1920  -24.7280 C.ar  255  PHE255     -0.0003
    219  CZ       -18.8980  -12.0070  -23.5760 C.ar  255  PHE255     -0.0000
    220  N        -22.8920   -9.4140  -27.1470 N.3   258  LEU258     -0.1245
    221  CA       -22.3220   -8.3980  -26.2860 C.3   258  LEU258      0.1561
    222  C        -22.2790   -7.0370  -26.9890 C.2   258  LEU258      0.2260
    223  O        -22.5940   -6.0020  -26.3970 O.2   258  LEU258     -0.2867
    224  CB       -20.9350   -8.8160  -25.8720 C.3   258  LEU258      0.0270
    225  CG       -20.2570   -7.9260  -24.8420 C.3   258  LEU258      0.0019
    226  CD1      -20.9370   -8.0750  -23.4910 C.3   258  LEU258      0.0001
    227  CD2      -18.7340   -8.2410  -24.7540 C.3   258  LEU258      0.0001
    228  N        -30.2760   -3.0330  -19.0080 N.3   272  LEU272     -0.1245
    229  CA       -29.9040   -3.8690  -17.8660 C.3   272  LEU272      0.1561
    230  C        -28.5120   -3.4550  -17.4290 C.2   272  LEU272      0.2260
    231  O        -28.1650   -3.5250  -16.2340 O.2   272  LEU272     -0.2867
    232  CB       -29.9270   -5.3590  -18.2270 C.3   272  LEU272      0.0270
    233  CG       -29.5640   -6.3670  -17.1190 C.3   272  LEU272      0.0019
    234  CD1      -30.3760   -6.1500  -15.8580 C.3   272  LEU272      0.0001
    235  CD2      -29.7440   -7.8210  -17.5990 C.3   272  LEU272      0.0001
    236  N        -25.6390   -3.1260  -13.4670 N.3   275  THR275     -0.1218
    237  CA       -24.5830   -4.0660  -13.1270 C.3   275  THR275      0.1862
    238  C        -23.3590   -3.7170  -13.9160 C.2   275  THR275      0.2287
    239  O        -23.4780   -3.1220  -14.9760 O.2   275  THR275     -0.2866
    240  CB       -24.9870   -5.5010  -13.4460 C.3   275  THR275      0.1770
    241  OG1      -24.0270   -6.4070  -12.8940 O.3   275  THR275     -0.2211
    242  CG2      -25.1190   -5.7100  -14.9450 C.3   275  THR275      0.0375
@<TRIPOS>BOND
     1   161   159    1
     2   159   158    1
     3   154   155    1
     4   158   155    1
     5   158   160    1
     6   155   156    1
     7   156   162   am
     8   156   157    2
     9   162   163    1
    10   169   168   ar
    11   152   151    2
    12   149   148    2
    13   148   147    1
    14   168   167    1
    15   168   170   ar
    16   151   153   am
    17   151   150    1
    18   167   166    1
    19   163   166    1
    20   163   164    1
    21   165   164    2
    22   147   150    1
    23   147   146    1
    24   164   171   am
    25   209   210    1
    26   146   141   am
    27   211   210    1
    28   211   212    2
    29   142   141    2
    30   141   140    1
    31   171   172    1
    32   210   213    1
    33   177   175    1
    34   220   221    1
    35   140   139    1
    36   140   143    1
    37   222   223    2
    38   222   221    1
    39   172   175    1
    40   172   173    1
    41   134   133    2
    42   213   214    1
    43   221   224    1
    44   175   176    1
    45   120   118   ar
    46    60    59   ar
    47   224   225    1
    48   133   132    1
    49   173   174    2
    50   143   144    1
    51   143   145    1
    52   216   214   ar
    53   216   218   ar
    54   176   178    1
    55   214   215   ar
    56   118   119   ar
    57   118   117    1
    58    56    55    2
    59    59    61   ar
    60    59    58    1
    61   225   227    1
    62   225   226    1
    63   218   219   ar
    64   137   135    1
    65   117   116    1
    66   132   135    1
    67   132   131    1
    68   215   217   ar
    69   124   123    2
    70    57    58    1
    71    57    54    1
    72   135   136    1
    73    55    54    1
    74   219   217   ar
    75   131   123   am
    76   123   122    1
    77    54    53    1
    78   116   113    1
    79   115   114    2
    80   114   113    1
    81   136   138    1
    82   122   121    1
    83   122   125    1
    84   113   112    1
    85   110   109    1
    86   179   180    1
    87    53    48   am
    88   189   187    1
    89   186   187    2
    90   186   185    1
    91   127   129   ar
    92   127   126   ar
    93    49    48    2
    94   129   130   ar
    95   184   185    1
    96   184   183    1
    97   208   207   ar
    98   208   206   ar
    99   187   188    1
   100    48    47    1
   101    96    95    2
   102   207   205   ar
   103   125   126    1
   104   126   128   ar
   105   109   111    1
   106   109   108    2
   107   180   183    1
   108   180   181    1
   109   130   128   ar
   110    69    68    2
   111   106   107    1
   112   106   105    1
   113    95    94    1
   114   206   204   ar
   115    70    68   am
   116    68    67    1
   117    52    50    1
   118   107   108    1
   119    45    44    2
   120   205   203   ar
   121   101   102    1
   122    82    81    1
   123    47    50    1
   124    47    46    1
   125   181   182    2
   126    67    66    1
   127    50    51    1
   128   102   105    1
   129   102   103    1
   130    94    93    1
   131    94    97    1
   132    44    46   am
   133    44    43    1
   134   228   229    1
   135   204   203   ar
   136   203   202    1
   137    99    97    1
   138    81    80   ar
   139    81    79   ar
   140   232   229    1
   141   232   233    1
   142    66    63    1
   143    43    42    1
   144   103   104    2
   145   229   230    1
   146    97    98    1
   147    80    78   ar
   148    62    63    1
   149   235   233    1
   150    79    77   ar
   151   230   231    2
   152   201   200    2
   153   202   199    1
   154    42    36   am
   155   200   199    1
   156    63    64    1
   157    40    39   ar
   158   233   234    1
   159    98   100    1
   160   199   198    1
   161    78    76   ar
   162    77    76   ar
   163    36    35    1
   164    36    37    2
   165    39    41   ar
   166    39    38    1
   167    30    29    2
   168    64    65    2
   169    35    38    1
   170    35    34    1
   171    76    75    1
   172   197   195    1
   173   239   238    2
   174   242   240    1
   175    29    34   am
   176    29    28    1
   177    25    23   ar
   178    25    26   ar
   179    23    21   ar
   180    32    31    1
   181    31    28    1
   182    31    33    1
   183    75    72    1
   184   238   237    1
   185   195   196    1
   186   195   194    1
   187    26    24   ar
   188    21    20    1
   189    21    22   ar
   190    20    17    1
   191    28    27    1
   192   236   237    1
   193   240   237    1
   194   240   241    1
   195    27    18   am
   196    71    72    1
   197    72    73    1
   198   194   191    1
   199   193   192    2
   200    24    22   ar
   201    18    19    2
   202    18    17    1
   203    17    16    1
   204   192   191    1
   205    91    92   ar
   206    91    89   ar
   207     7     6   ar
   208     5     6    1
   209     5     2    1
   210    14    13    1
   211     6     8   ar
   212   191   190    1
   213    73    74    2
   214    92    90   ar
   215    89    88   ar
   216    15    13    1
   217    13    10    1
   218     1     2    1
   219     2     3    1
   220    90    88   ar
   221    88    87    1
   222    10    11    1
   223    10     9    1
   224    84    83    1
   225    84    87    1
   226    84    85    1
   227     3     4    2
   228    11    12    2
   229    85    86    2
