@<TRIPOS>MOLECULE
tmp/2ij7B01.pdb
 162 153 0 0 0
SMALL
GASTEIGER

@<TRIPOS>ATOM
      1  N         19.9740    8.0760  147.3100 N.3    57  MET57      -0.1245
      2  CA        20.9290    8.8620  148.1070 C.3    57  MET57       0.1570
      3  C         20.8120   10.3450  147.7950 C.2    57  MET57       0.2261
      4  O         20.7290   11.1940  148.7000 O.2    57  MET57      -0.2867
      5  CB        22.3760    8.3910  147.8710 C.3    57  MET57       0.0387
      6  CG        23.3880    8.9230  148.8950 C.3    57  MET57       0.0595
      7  SD        25.1230    8.9720  148.2800 S.3    57  MET57      -0.1393
      8  CE        25.7430    7.4790  149.0170 C.3    57  MET57       0.0692
      9  N         20.5520   13.9410  159.7840 N.3    69  ASN69      -0.1240
     10  CA        21.3390   14.9260  160.4480 C.3    69  ASN69       0.1653
     11  C         21.4490   16.1450  159.5430 C.2    69  ASN69       0.2266
     12  O         21.0100   16.1200  158.4100 O.2    69  ASN69      -0.2867
     13  CB        22.7370   14.3570  160.8170 C.3    69  ASN69       0.1155
     14  CG        23.4250   13.6210  159.6620 C.2    69  ASN69       0.2627
     15  OD1       24.0860   12.5760  159.8620 O.2    69  ASN69      -0.2716
     16  ND2       23.3470   14.1730  158.5080 N.am   69  ASN69      -0.0877
     17  N         22.9510   18.8490  157.0190 N.3    71  LEU71      -0.1231
     18  CA        23.9440   18.8770  155.9640 C.3    71  LEU71       0.1693
     19  C         25.1670   19.6390  156.4120 C.2    71  LEU71       0.2593
     20  O         25.0390   20.7300  156.9880 O.2    71  LEU71      -0.2718
     21  CB        23.4210   19.5020  154.6570 C.3    71  LEU71       0.0284
     22  CG        22.8310   18.6050  153.5860 C.3    71  LEU71       0.0019
     23  CD1       22.3900   19.4420  152.3670 C.3    71  LEU71       0.0001
     24  CD2       23.7970   17.5450  153.1410 C.3    71  LEU71       0.0001
     25  N         26.3370   19.0690  156.1770 N.am   72  THR72      -0.1939
     26  CA        27.6160   19.7650  156.4610 C.3    72  THR72       0.2028
     27  C         28.3210   20.1250  155.1680 C.2    72  THR72       0.2642
     28  O         29.4370   20.6770  155.1790 O.2    72  THR72      -0.2714
     29  CB        28.5430   18.9250  157.3730 C.3    72  THR72       0.1808
     30  OG1       28.7840   17.6400  156.7980 O.3    72  THR72      -0.2208
     31  CG2       27.9030   18.7210  158.7010 C.3    72  THR72       0.0379
     32  N         27.6840   19.7710  154.0510 N.am   73  VAL73      -0.1977
     33  CA        28.2210   20.0340  152.7000 C.3    73  VAL73       0.1596
     34  C         27.1430   20.6520  151.7890 C.2    73  VAL73       0.2287
     35  O         25.9070   20.4610  152.0270 O.2    73  VAL73      -0.2864
     36  CB        28.7650   18.7530  152.0460 C.3    73  VAL73       0.0276
     37  CG1       30.0580   18.2860  152.7090 C.3    73  VAL73       0.0022
     38  CG2       27.7200   17.6170  152.0500 C.3    73  VAL73       0.0022
     39  N         27.1920   17.7600  146.8360 N.3    77  VAL77      -0.1231
     40  CA        28.2560   16.8350  147.2600 C.3    77  VAL77       0.1692
     41  C         27.7050   15.4440  147.5070 C.2    77  VAL77       0.2591
     42  O         28.3420   14.4800  147.2050 O.2    77  VAL77      -0.2718
     43  CB        29.0150   17.3250  148.5010 C.3    77  VAL77       0.0266
     44  CG1       29.9400   16.2100  149.0480 C.3    77  VAL77       0.0020
     45  CG2       29.8200   18.5170  148.1640 C.3    77  VAL77       0.0020
     46  N         26.4760   15.3560  148.0050 N.am   78  VAL78      -0.1980
     47  CA        25.8120   14.0680  148.2460 C.3    78  VAL78       0.1595
     48  C         25.6420   13.2960  146.9210 C.2    78  VAL78       0.2287
     49  O         25.6040   12.0410  146.9160 O.2    78  VAL78      -0.2864
     50  CB        24.4780   14.2600  149.0160 C.3    78  VAL78       0.0276
     51  CG1       23.7900   12.9180  149.2980 C.3    78  VAL78       0.0022
     52  CG2       24.7390   14.9710  150.3350 C.3    78  VAL78       0.0022
     53  N         27.9510   13.4660  144.4120 N.3    80  ASN80      -0.1225
     54  CA        29.2460   13.6430  143.7660 C.3    80  ASN80       0.1785
     55  C         29.5330   12.5410  142.7840 C.2    80  ASN80       0.2597
     56  O         29.9460   12.8140  141.6590 O.2    80  ASN80      -0.2718
     57  CB        30.3650   13.8320  144.7950 C.3    80  ASN80       0.1169
     58  CG        31.6410   14.4130  144.1960 C.2    80  ASN80       0.2627
     59  OD1       31.6520   15.5200  143.5840 O.2    80  ASN80      -0.2716
     60  ND2       32.7400   13.6880  144.3800 N.am   80  ASN80      -0.0877
     61  N         29.2560   11.2970  143.1540 N.am   81  MET81      -0.1979
     62  CA        29.5630   10.1910  142.2440 C.3    81  MET81       0.1605
     63  C         28.7390   10.2530  140.9610 C.2    81  MET81       0.2287
     64  O         29.2690    9.9670  139.9020 O.2    81  MET81      -0.2864
     65  CB        29.4060    8.8300  142.9020 C.3    81  MET81       0.0413
     66  CG        30.6280    8.4130  143.6810 C.3    81  MET81       0.0598
     67  SD        32.1710    8.0970  142.7940 S.3    81  MET81      -0.1393
     68  CE        31.6060    7.7130  141.1430 C.3    81  MET81       0.0692
     69  N         33.3280   18.4000  159.8990 N.3   162  ALA162     -0.1231
     70  CA        32.7540   18.0270  158.6330 C.3   162  ALA162      0.1694
     71  C         31.8980   16.7580  158.7370 C.2   162  ALA162      0.2592
     72  O         30.8560   16.6550  158.1060 O.2   162  ALA162     -0.2718
     73  CB        33.8510   17.8090  157.6300 C.3   162  ALA162      0.0304
     74  N         32.3660   15.7970  159.5130 N.am  163  PHE163     -0.1976
     75  CA        31.6580   14.5240  159.6680 C.3   163  PHE163      0.1639
     76  C         30.8530   14.4560  160.9420 C.2   163  PHE163      0.2290
     77  O         30.5240   13.3780  161.4280 O.2   163  PHE163     -0.2864
     78  CB        32.6070   13.3530  159.4600 C.3   163  PHE163      0.0560
     79  CG        32.9460   13.1700  158.0130 C.ar  163  PHE163     -0.0200
     80  CD1       34.0180   13.8330  157.4710 C.ar  163  PHE163     -0.0042
     81  CD2       32.0850   12.4610  157.1630 C.ar  163  PHE163     -0.0042
     82  CE1       34.2850   13.7740  156.1100 C.ar  163  PHE163     -0.0003
     83  CE2       32.3270   12.3880  155.8160 C.ar  163  PHE163     -0.0003
     84  CZ        33.4610   13.0350  155.2800 C.ar  163  PHE163     -0.0000
     85  N         35.9130   16.2890  148.6470 N.3   224  THR224     -0.1203
     86  CA        34.9460   15.1810  148.9280 C.3   224  THR224      0.1994
     87  C         35.6760   13.8590  149.1550 C.2   224  THR224      0.2617
     88  O         35.4580   13.1760  150.1710 O.2   224  THR224     -0.2717
     89  CB        33.9520   15.0950  147.7880 C.3   224  THR224      0.1784
     90  OG1       33.1750   16.3060  147.7630 O.3   224  THR224     -0.2211
     91  CG2       32.9560   13.8740  147.9570 C.3   224  THR224      0.0376
     92  N         36.6030   13.5270  148.2590 N.am  225  PHE225     -0.1975
     93  CA        37.3000   12.2540  148.3610 C.3   225  PHE225      0.1639
     94  C         38.3320   12.2650  149.4710 C.2   225  PHE225      0.2290
     95  O         38.5140   11.2120  150.1330 O.2   225  PHE225     -0.2864
     96  CB        37.9090   11.8210  147.0200 C.3   225  PHE225      0.0560
     97  CG        36.9470   11.1010  146.1310 C.ar  225  PHE225     -0.0200
     98  CD1       35.8240   11.7450  145.6210 C.ar  225  PHE225     -0.0042
     99  CD2       37.1600    9.7650  145.8020 C.ar  225  PHE225     -0.0042
    100  CE1       34.9110   11.0550  144.7790 C.ar  225  PHE225     -0.0003
    101  CE2       36.2810    9.0810  144.9490 C.ar  225  PHE225     -0.0003
    102  CZ        35.1500    9.7310  144.4610 C.ar  225  PHE225     -0.0000
    103  N         35.9650   11.8440  152.7000 N.3   228  ALA228     -0.1245
    104  CA        35.3100   10.4890  152.8490 C.3   228  ALA228      0.1562
    105  C         36.3440    9.4310  153.0260 C.2   228  ALA228      0.2260
    106  O         36.2200    8.5470  153.8900 O.2   228  ALA228     -0.2867
    107  CB        34.4540   10.1500  151.6280 C.3   228  ALA228      0.0290
    108  N         37.0670    7.5410  156.6460 N.3   232  SER232     -0.1217
    109  CA        36.6340    6.1470  156.5970 C.3   232  SER232      0.1889
    110  C         37.7540    5.1930  156.9040 C.2   232  SER232      0.2288
    111  O         37.5870    4.2540  157.7100 O.2   232  SER232     -0.2866
    112  CB        36.0410    5.8330  155.2440 C.3   232  SER232      0.2089
    113  OG        34.8260    6.5190  155.0830 O.3   232  SER232     -0.2183
    114  N         30.5880    2.9710  161.2510 N.3   275  PHE275     -0.1241
    115  CA        29.4860    3.8940  160.8600 C.3   275  PHE275      0.1605
    116  C         28.5410    4.0590  162.0120 C.2   275  PHE275      0.2264
    117  O         28.0000    3.0770  162.5370 O.2   275  PHE275     -0.2867
    118  CB        28.7480    3.4360  159.6030 C.3   275  PHE275      0.0534
    119  CG        29.4150    3.8400  158.2860 C.ar  275  PHE275     -0.0203
    120  CD1       30.6930    3.4000  157.9520 C.ar  275  PHE275     -0.0042
    121  CD2       28.7520    4.6620  157.3920 C.ar  275  PHE275     -0.0042
    122  CE1       31.2700    3.7540  156.7400 C.ar  275  PHE275     -0.0003
    123  CE2       29.3470    5.0100  156.1880 C.ar  275  PHE275     -0.0003
    124  CZ        30.6050    4.5450  155.8810 C.ar  275  PHE275     -0.0000
    125  N         22.8890    4.0070  156.7830 N.3   279  LEU279     -0.1245
    126  CA        23.0780    4.6630  155.5000 C.3   279  LEU279      0.1561
    127  C         21.7410    5.2640  155.1050 C.2   279  LEU279      0.2260
    128  O         20.7520    4.5530  155.1200 O.2   279  LEU279     -0.2867
    129  CB        23.5580    3.6670  154.4680 C.3   279  LEU279      0.0270
    130  CG        24.9390    3.0240  154.7080 C.3   279  LEU279      0.0019
    131  CD1       25.3280    2.2270  153.4900 C.3   279  LEU279      0.0001
    132  CD2       26.0240    3.9920  155.1150 C.3   279  LEU279      0.0001
    133  N         25.7250    2.7290  145.0350 N.3   338  HIS338     -0.1241
    134  CA        26.6530    3.5820  145.7750 C.3   338  HIS338      0.1621
    135  C         27.7430    2.8270  146.5120 C.2   338  HIS338      0.2264
    136  O         28.3820    3.3530  147.4120 O.2   338  HIS338     -0.2867
    137  CB        25.8730    4.5040  146.7200 C.3   338  HIS338      0.0745
    138  CG        24.9910    5.4760  145.9950 C.ar  338  HIS338      0.0817
    139  ND1       25.4810    6.6230  145.3970 N.ar  338  HIS338     -0.2268
    140  CD2       23.6590    5.4410  145.7300 C.ar  338  HIS338      0.1154
    141  CE1       24.4790    7.2510  144.7980 C.ar  338  HIS338      0.1986
    142  NE2       23.3600    6.5680  145.0060 N.ar  338  HIS338     -0.2212
    143  N         29.6220   11.0340  162.5190 N.3   380  GLN380     -0.1231
    144  CA        29.1840   10.0510  161.5380 C.3   380  GLN380      0.1698
    145  C         29.9420    8.7400  161.6710 C.2   380  GLN380      0.2592
    146  O         29.5800    7.7200  161.0610 O.2   380  GLN380     -0.2718
    147  CB        29.2420   10.6260  160.1470 C.3   380  GLN380      0.0381
    148  CG        28.2310   11.7360  159.9210 C.3   380  GLN380      0.0905
    149  CD        28.3920   12.3770  158.6050 C.2   380  GLN380      0.2608
    150  OE1       28.3450   13.6370  158.4580 O.2   380  GLN380     -0.2717
    151  NE2       28.5860   11.5520  157.6120 N.am  380  GLN380     -0.0878
    152  N         30.9710    8.7540  162.4990 N.am  381  ARG381     -0.1980
    153  CA        31.7440    7.5430  162.8110 C.3   381  ARG381      0.1597
    154  C         31.8030    7.3720  164.3160 C.2   381  ARG381      0.2287
    155  O         31.6730    8.3580  165.0820 O.2   381  ARG381     -0.2864
    156  CB        33.1680    7.5940  162.1960 C.3   381  ARG381      0.0334
    157  CG        33.2540    7.6770  160.6530 C.3   381  ARG381      0.0492
    158  CD        32.7680    6.4010  159.9570 C.3   381  ARG381      0.2205
    159  NE        32.8950    6.5750  158.5210 N.pl3 381  ARG381     -0.0865
    160  CZ        32.0470    7.2700  157.7590 C.cat 381  ARG381      0.5346
    161  NH1       32.2800    7.4340  156.4720 N.pl3 381  ARG381      0.1354
    162  NH2       30.9460    7.7660  158.2730 N.pl3 381  ARG381      0.1354
@<TRIPOS>BOND
     1    64    63    2
     2    63    62    1
     3    68    67    1
     4    56    55    2
     5    62    65    1
     6    62    61    1
     7    55    61   am
     8    55    54    1
     9    67    66    1
    10    65    66    1
    11    59    58    2
    12    54    53    1
    13    54    57    1
    14    58    60   am
    15    58    57    1
    16   102   100   ar
    17   102   101   ar
    18   100    98   ar
    19   141   142   ar
    20   141   139   ar
    21   101    99   ar
    22   142   140   ar
    23   133   134    1
    24   139   138   ar
    25    98    97   ar
    26   140   138   ar
    27   134   135    1
    28   134   137    1
    29    99    97   ar
    30   138   137    1
    31    97    96    1
    32   135   136    2
    33    39    40    1
    34    49    48    2
    35    48    47    1
    36    96    93    1
    37    42    41    2
    38    40    41    1
    39    40    43    1
    40     1     2    1
    41    41    46   am
    42    90    89    1
    43    89    91    1
    44    89    86    1
    45     3     2    1
    46     3     4    2
    47     5     2    1
    48     5     6    1
    49    46    47    1
    50    45    43    1
    51    47    50    1
    52    92    93    1
    53    92    87   am
    54     7     6    1
    55     7     8    1
    56    93    94    1
    57    43    44    1
    58    85    86    1
    59    86    87    1
    60    50    51    1
    61    50    52    1
    62    87    88    2
    63    94    95    2
    64   107   104    1
    65    34    35    2
    66    34    33    1
    67    36    38    1
    68    36    33    1
    69    36    37    1
    70    23    22    1
    71   103   104    1
    72    33    32    1
    73   104   105    1
    74   105   106    2
    75    24    22    1
    76   131   130    1
    77    22    21    1
    78    32    27   am
    79   129   130    1
    80   129   126    1
    81    21    18    1
    82   130   132    1
    83   113   112    1
    84   127   128    2
    85   127   126    1
    86    27    28    2
    87    27    26    1
    88   112   109    1
    89    84    83   ar
    90    84    82   ar
    91   126   125    1
    92    83    81   ar
    93   124   123   ar
    94   124   122   ar
    95    18    19    1
    96    18    17    1
    97    82    80   ar
    98    25    19   am
    99    25    26    1
   100   123   121   ar
   101    19    20    2
   102    26    29    1
   103   161   160    1
   104   109   108    1
   105   109   110    1
   106   122   120   ar
   107    30    29    1
   108   110   111    2
   109    81    79   ar
   110    29    31    1
   111   121   119   ar
   112    80    79   ar
   113   151   149   am
   114    73    70    1
   115   160   162    1
   116   160   159    2
   117   120   119   ar
   118    79    78    1
   119    72    71    2
   120   119   118    1
   121    12    11    2
   122   150   149    2
   123    16    14   am
   124   159   158    1
   125   149   148    1
   126    70    71    1
   127    70    69    1
   128    71    74   am
   129    78    75    1
   130    74    75    1
   131    11    10    1
   132   118   115    1
   133    14    15    2
   134    14    13    1
   135    75    76    1
   136     9    10    1
   137   148   147    1
   138   158   157    1
   139   147   144    1
   140    10    13    1
   141   157   156    1
   142   115   114    1
   143   115   116    1
   144    76    77    2
   145   146   145    2
   146   144   145    1
   147   144   143    1
   148   145   152   am
   149   116   117    2
   150   156   153    1
   151   152   153    1
   152   153   154    1
   153   154   155    2
