@<TRIPOS>MOLECULE
tmp/2ijmA00.pdb
 194 185 0 0 0
SMALL
GASTEIGER

@<TRIPOS>ATOM
      1  N          0.5510   14.5310   12.5300 N.3    15  ILE15      -0.1231
      2  CA        -0.5710   13.9980   11.7450 C.3    15  ILE15       0.1692
      3  C         -0.6910   12.4830   11.8430 C.2    15  ILE15       0.2593
      4  O         -1.5620   11.8660   11.2180 O.2    15  ILE15      -0.2718
      5  CB        -0.5180   14.4540   10.2740 C.3    15  ILE15       0.0266
      6  CG1        0.7810   13.9920    9.5800 C.3    15  ILE15       0.0019
      7  CG2       -0.6780   15.9640   10.1920 C.3    15  ILE15       0.0020
      8  CD1        0.9260   14.4460    8.1060 C.3    15  ILE15       0.0001
      9  N          0.1710   11.8880   12.6500 N.am   16  GLY16      -0.1942
     10  CA         0.1090   10.4720   12.8880 C.3    16  GLY16       0.2014
     11  C          1.3000   10.0090   13.6780 C.2    16  GLY16       0.2639
     12  O          2.2600   10.7490   13.8740 O.2    16  GLY16      -0.2714
     13  N          1.2290    8.7720   14.1360 N.am   17  GLU17      -0.1963
     14  CA         2.3220    8.1800   14.8660 C.3    17  GLU17       0.1733
     15  C          2.8170    6.9980   14.0640 C.2    17  GLU17       0.2617
     16  O          2.0480    6.1020   13.7290 O.2    17  GLU17      -0.2715
     17  CB         1.8680    7.7110   16.2480 C.3    17  GLU17       0.0429
     18  CG         1.0980    8.7420   17.0610 C.3    17  GLU17       0.1163
     19  CD         0.5740    8.1550   18.3570 C.2    17  GLU17       0.3649
     20  OE1        1.4000    7.7000   19.1810 O.co2  17  GLU17      -0.2457
     21  OE2       -0.6630    8.1420   18.5450 O.co2  17  GLU17      -0.2457
     22  N          4.1010    7.0050   13.7480 N.am   18  GLY18      -0.1940
     23  CA         4.7060    5.8960   13.0400 C.3    18  GLY18       0.2014
     24  C          5.4520    4.9750   13.9810 C.2    18  GLY18       0.2639
     25  O          5.5900    5.2570   15.1770 O.2    18  GLY18      -0.2714
     26  N          5.9370    3.8790   13.4100 N.am   19  GLN19      -0.1963
     27  CA         6.7060    2.8450   14.0900 C.3    19  GLN19       0.1733
     28  C          7.9660    3.3840   14.7790 C.2    19  GLN19       0.2616
     29  O          8.3970    2.8660   15.8190 O.2    19  GLN19      -0.2715
     30  CB         7.1210    1.8170   13.0470 C.3    19  GLN19       0.0408
     31  CG         7.2690    0.4030   13.5440 C.3    19  GLN19       0.0908
     32  CD         7.8460   -0.4880   12.4630 C.2    19  GLN19       0.2608
     33  OE1        7.1390   -1.3100   11.8800 O.2    19  GLN19      -0.2717
     34  NE2        9.1320   -0.3050   12.1660 N.am   19  GLN19      -0.0878
     35  N          8.5420    4.4220   14.1840 N.am   20  PHE20      -0.1974
     36  CA         9.8110    4.9720   14.6190 C.3    20  PHE20       0.1639
     37  C          9.6540    6.2890   15.3670 C.2    20  PHE20       0.2290
     38  O         10.4770    6.6270   16.2190 O.2    20  PHE20      -0.2864
     39  CB        10.7290    5.1520   13.4080 C.3    20  PHE20       0.0560
     40  CG        11.1870    3.8500   12.8070 C.ar   20  PHE20      -0.0200
     41  CD1       10.6320    3.3840   11.6230 C.ar   20  PHE20      -0.0042
     42  CD2       12.1550    3.0770   13.4450 C.ar   20  PHE20      -0.0042
     43  CE1       11.0400    2.1810   11.0790 C.ar   20  PHE20      -0.0003
     44  CE2       12.5680    1.8700   12.9080 C.ar   20  PHE20      -0.0003
     45  CZ        12.0120    1.4200   11.7180 C.ar   20  PHE20      -0.0000
     46  N          4.7670   11.3870   12.9330 N.3    23  VAL23      -0.1245
     47  CA         4.7690   11.9460   11.6020 C.3    23  VAL23       0.1561
     48  C          4.1110   13.2920   11.7310 C.2    23  VAL23       0.2260
     49  O          3.0820   13.4110   12.3860 O.2    23  VAL23      -0.2867
     50  CB         4.0200   11.0360   10.5950 C.3    23  VAL23       0.0252
     51  CG1        4.0270   11.6450    9.1860 C.3    23  VAL23       0.0019
     52  CG2        4.6430    9.6720   10.5910 C.3    23  VAL23       0.0019
     53  N          5.0740   15.7820    4.4110 N.3    39  ALA39      -0.1245
     54  CA         5.0460   14.9820    5.6120 C.3    39  ALA39       0.1562
     55  C          6.4840   14.8090    6.0530 C.2    39  ALA39       0.2260
     56  O          7.3920   14.7190    5.2220 O.2    39  ALA39      -0.2867
     57  CB         4.4030   13.6320    5.3390 C.3    39  ALA39       0.0290
     58  N          8.4940   12.3130    8.5120 N.3    41  LYS41      -0.1245
     59  CA         8.6130   11.1980    9.4120 C.3    41  LYS41       0.1561
     60  C          9.8420   11.4250   10.2920 C.2    41  LYS41       0.2260
     61  O         10.9410   11.6450    9.7850 O.2    41  LYS41      -0.2867
     62  CB         8.6940    9.8880    8.6380 C.3    41  LYS41       0.0271
     63  CG         7.4090    9.5700    7.8760 C.3    41  LYS41       0.0035
     64  CD         7.5000    8.2690    7.0890 C.3    41  LYS41       0.0206
     65  CE         7.3590    7.0540    8.0060 C.3    41  LYS41       0.1093
     66  NZ         6.7560    5.9110    7.2880 N.3    41  LYS41      -0.1314
     67  N         13.2170    2.8200    4.4550 N.3    58  GLU58      -0.1245
     68  CA        12.0010    3.1930    3.7610 C.3    58  GLU58       0.1567
     69  C         12.2620    4.1880    2.6300 C.2    58  GLU58       0.2260
     70  O         11.7280    4.0280    1.5310 O.2    58  GLU58      -0.2867
     71  CB        10.9770    3.7880    4.7170 C.3    58  GLU58       0.0388
     72  CG         9.7220    4.2940    3.9750 C.3    58  GLU58       0.1160
     73  CD         8.5510    4.5650    4.8870 C.2    58  GLU58       0.3649
     74  OE1        8.7780    5.0210    6.0260 O.co2  58  GLU58      -0.2457
     75  OE2        7.4000    4.3170    4.4570 O.co2  58  GLU58      -0.2457
     76  N          3.4210    7.0370   -3.1390 N.3    71  VAL71      -0.1245
     77  CA         4.0280    8.1410   -2.3920 C.3    71  VAL71       0.1561
     78  C          5.4600    8.4710   -2.8490 C.2    71  VAL71       0.2260
     79  O          6.3200    7.5950   -2.9400 O.2    71  VAL71      -0.2867
     80  CB         3.9550    7.8910   -0.8610 C.3    71  VAL71       0.0252
     81  CG1        4.9670    8.7300   -0.1170 C.3    71  VAL71       0.0019
     82  CG2        2.5880    8.2440   -0.3690 C.3    71  VAL71       0.0019
     83  N          8.6060   13.5290    2.6420 N.3    86  MET86      -0.1230
     84  CA         7.8850   12.9480    1.5390 C.3    86  MET86       0.1702
     85  C          6.6640   13.7570    1.1830 C.2    86  MET86       0.2592
     86  O          6.2590   14.6780    1.9020 O.2    86  MET86      -0.2718
     87  CB         7.4860   11.5010    1.8340 C.3    86  MET86       0.0401
     88  CG         6.7060   11.3140    3.1030 C.3    86  MET86       0.0596
     89  SD         6.1590    9.6220    3.3240 S.3    86  MET86      -0.1393
     90  CE         7.7390    8.8120    3.5360 C.3    86  MET86       0.0692
     91  N          6.0940   13.3770    0.0500 N.am   87  GLU87      -0.1966
     92  CA         4.8510   13.9070   -0.4390 C.3    87  GLU87       0.1733
     93  C          3.7720   13.8620    0.6460 C.2    87  GLU87       0.2616
     94  O          3.5940   12.8470    1.3370 O.2    87  GLU87      -0.2715
     95  CB         4.4460   13.0910   -1.6570 C.3    87  GLU87       0.0429
     96  CG         3.1990   13.5270   -2.3570 C.3    87  GLU87       0.1163
     97  CD         2.7500   12.5010   -3.3850 C.2    87  GLU87       0.3649
     98  OE1        3.5000   11.5240   -3.6400 O.co2  87  GLU87      -0.2457
     99  OE2        1.6470   12.6780   -3.9370 O.co2  87  GLU87      -0.2457
    100  N          3.0760   14.9830    0.8110 N.am   88  LEU88      -0.1963
    101  CA         1.9850   15.0400    1.7660 C.3    88  LEU88       0.1728
    102  C          0.7340   14.5670    1.0540 C.2    88  LEU88       0.2616
    103  O          0.3820   15.0780   -0.0090 O.2    88  LEU88      -0.2715
    104  CB         1.7780   16.4540    2.3240 C.3    88  LEU88       0.0311
    105  CG         1.2280   16.6650    3.7530 C.3    88  LEU88       0.0022
    106  CD1        0.3430   17.8960    3.8040 C.3    88  LEU88       0.0001
    107  CD2        0.4570   15.5280    4.3310 C.3    88  LEU88       0.0001
    108  N          0.0830   13.5680    1.6350 N.am   89  CYS89      -0.1968
    109  CA        -1.2520   13.1890    1.2080 C.3    89  CYS89       0.1712
    110  C         -2.2010   13.7270    2.2750 C.2    89  CYS89       0.2296
    111  O         -2.4520   13.0650    3.2890 O.2    89  CYS89      -0.2864
    112  CB        -1.3470   11.6680    1.0400 C.3    89  CYS89       0.0983
    113  SG        -0.1580   11.0260   -0.1580 S.3    89  CYS89      -0.0798
    114  N         -4.7360   11.8310    4.4930 N.3    92  GLY92      -0.1210
    115  CA        -4.2550   10.8150    5.4550 C.3    92  GLY92       0.1956
    116  C         -4.5440    9.3560    5.1410 C.2    92  GLY92       0.2611
    117  O         -4.8470    9.0030    4.0100 O.2    92  GLY92      -0.2717
    118  N         -4.4430    8.5060    6.1590 N.am   93  GLU93      -0.1979
    119  CA        -4.6620    7.0560    6.0310 C.3    93  GLU93       0.1602
    120  C         -6.0150    6.7400    5.3950 C.2    93  GLU93       0.2287
    121  O         -7.0480    7.2900    5.7950 O.2    93  GLU93      -0.2864
    122  CB        -4.5470    6.3820    7.4050 C.3    93  GLU93       0.0415
    123  CG        -4.7650    4.8470    7.4000 C.3    93  GLU93       0.1163
    124  CD        -4.7860    4.2330    8.8040 C.2    93  GLU93       0.3649
    125  OE1       -4.2860    4.8920    9.7490 O.co2  93  GLU93      -0.2457
    126  OE2       -5.2990    3.0940    8.9740 O.co2  93  GLU93      -0.2457
    127  N         -4.5790    0.2400    5.5710 N.3   137  ARG137     -0.1231
    128  CA        -3.7070    0.9900    6.5080 C.3   137  ARG137      0.1694
    129  C         -2.4460    1.5600    5.8570 C.2   137  ARG137      0.2592
    130  O         -1.8420    2.4980    6.3780 O.2   137  ARG137     -0.2718
    131  CB        -3.3020    0.1040    7.6960 C.3   137  ARG137      0.0321
    132  CG        -2.3940   -1.0840    7.3330 C.3   137  ARG137      0.0489
    133  CD        -2.2130   -2.0540    8.4960 C.3   137  ARG137      0.2205
    134  NE        -2.5110   -3.4280    8.0850 N.pl3 137  ARG137     -0.0865
    135  CZ        -1.6050   -4.3650    7.8240 C.cat 137  ARG137      0.5346
    136  NH1       -0.3140   -4.1040    7.9440 N.pl3 137  ARG137      0.1354
    137  NH2       -1.9990   -5.5730    7.4430 N.pl3 137  ARG137      0.1354
    138  N         -2.0590    0.9980    4.7130 N.am  138  ASN138     -0.1974
    139  CA        -0.8450    1.4080    4.0290 C.3   138  ASN138      0.1688
    140  C         -1.0970    2.2840    2.8070 C.2   138  ASN138      0.2292
    141  O         -0.1800    2.5980    2.0380 O.2   138  ASN138     -0.2864
    142  CB        -0.0160    0.1720    3.6870 C.3   138  ASN138      0.1181
    143  CG         0.6590   -0.4090    4.9050 C.2   138  ASN138      0.2629
    144  OD1        1.0670    0.3310    5.7870 O.2   138  ASN138     -0.2716
    145  ND2        0.7620   -1.7250    4.9750 N.am  138  ASN138     -0.0877
    146  N         -2.5240    5.9390    1.4090 N.3   140  LEU140     -0.1245
    147  CA        -2.7790    7.3200    1.7550 C.3   140  LEU140      0.1561
    148  C         -3.7070    7.9750    0.7400 C.2   140  LEU140      0.2260
    149  O         -3.8240    7.5210   -0.4110 O.2   140  LEU140     -0.2867
    150  CB        -1.4760    8.1040    1.8790 C.3   140  LEU140      0.0270
    151  CG        -0.5170    7.7440    3.0120 C.3   140  LEU140      0.0019
    152  CD1        0.8540    8.3820    2.7620 C.3   140  LEU140      0.0001
    153  CD2       -1.0690    8.1630    4.3700 C.3   140  LEU140      0.0001
    154  N          1.7540    3.7940    0.1580 N.3   150  GLY150     -0.1210
    155  CA         2.7830    4.4870    0.9410 C.3   150  GLY150      0.1956
    156  C          3.7940    3.6970    1.7530 C.2   150  GLY150      0.2612
    157  O          4.7750    4.2800    2.2300 O.2   150  GLY150     -0.2717
    158  N          3.5850    2.3860    1.8990 N.am  151  ASP151     -0.1959
    159  CA         4.2840    1.5900    2.9280 C.3   151  ASP151      0.1840
    160  C          5.5290    0.8380    2.4770 C.2   151  ASP151      0.2622
    161  O          5.4610   -0.3190    2.0460 O.2   151  ASP151     -0.2715
    162  CB         3.3350    0.5680    3.5630 C.3   151  ASP151      0.1450
    163  CG         4.0110   -0.2790    4.6390 C.2   151  ASP151      0.3671
    164  OD1        4.4660    0.2960    5.6410 O.co2 151  ASP151     -0.2456
    165  OD2        4.0930   -1.5170    4.4960 O.co2 151  ASP151     -0.2456
    166  N          6.6730    1.4750    2.6250 N.am  152  PHE152     -0.1960
    167  CA         7.9270    0.7700    2.4460 C.3   152  PHE152      0.1771
    168  C          8.6560    0.7490    3.8030 C.2   152  PHE152      0.2620
    169  O          8.3780    1.5760    4.6760 O.2   152  PHE152     -0.2715
    170  CB         8.7030    1.3860    1.2690 C.3   152  PHE152      0.0574
    171  CG         7.8650    1.5100    0.0060 C.ar  152  PHE152     -0.0200
    172  CD1        7.2500    2.7170   -0.3270 C.ar  152  PHE152     -0.0042
    173  CD2        7.6480    0.4030   -0.8190 C.ar  152  PHE152     -0.0042
    174  CE1        6.4500    2.8310   -1.4710 C.ar  152  PHE152     -0.0003
    175  CE2        6.8620    0.5020   -1.9750 C.ar  152  PHE152     -0.0003
    176  CZ         6.2550    1.7130   -2.3010 C.ar  152  PHE152     -0.0000
    177  N          9.5200   -0.2370    4.0220 N.am  153  GLY153     -0.1940
    178  CA        10.1470   -0.4080    5.3460 C.3   153  GLY153      0.2014
    179  C          9.3120   -1.2050    6.3470 C.2   153  GLY153      0.2639
    180  O          9.7770   -1.5100    7.4510 O.2   153  GLY153     -0.2714
    181  N          8.0620   -1.4790    5.9730 N.am  154  LEU154     -0.1963
    182  CA         7.2460   -2.5970    6.4920 C.3   154  LEU154      0.1728
    183  C          6.8330   -2.6990    7.9710 C.2   154  LEU154      0.2616
    184  O          6.7910   -1.7010    8.7030 O.2   154  LEU154     -0.2715
    185  CB         7.8090   -3.9530    6.0230 C.3   154  LEU154      0.0311
    186  CG         7.6680   -4.3750    4.5560 C.3   154  LEU154      0.0022
    187  CD1        6.4210   -3.7680    3.8910 C.3   154  LEU154      0.0001
    188  CD2        8.9370   -4.0450    3.7680 C.3   154  LEU154      0.0001
    189  N          6.5520   -3.9450    8.3660 N.am  155  SER155     -0.1950
    190  CA         5.6660   -4.3310    9.4890 C.3   155  SER155      0.1924
    191  C          5.2230   -3.2320   10.4680 C.2   155  SER155      0.2314
    192  O          5.5150   -3.2820   11.6610 O.2   155  SER155     -0.2863
    193  CB         6.2060   -5.5840   10.2220 C.3   155  SER155      0.2116
    194  OG         7.5610   -5.4340   10.6280 O.3   155  SER155     -0.2180
@<TRIPOS>BOND
     1    99    97   ar
     2    98    97   ar
     3    97    96    1
     4    76    77    1
     5    79    78    2
     6    78    77    1
     7    77    80    1
     8    96    95    1
     9   176   175   ar
    10   176   174   ar
    11   175   173   ar
    12    95    92    1
    13   174   172   ar
    14    80    82    1
    15    80    81    1
    16   173   171   ar
    17    92    91    1
    18    92    93    1
    19   149   148    2
    20   172   171   ar
    21   113   112    1
    22   103   102    2
    23   171   170    1
    24    91    85   am
    25   154   155    1
    26    93   100   am
    27    93    94    2
    28   148   147    1
    29   100   101    1
    30   155   156    1
    31   112   109    1
    32   102   108   am
    33   102   101    1
    34    85    84    1
    35    85    86    2
    36   109   108    1
    37   109   110    1
    38   170   167    1
    39   146   147    1
    40    70    69    2
    41    84    87    1
    42    84    83    1
    43   156   158   am
    44   156   157    2
    45   147   150    1
    46   101   104    1
    47    87    88    1
    48   150   151    1
    49   158   159    1
    50   141   140    2
    51   161   160    2
    52   110   111    2
    53   104   105    1
    54   167   166    1
    55   167   168    1
    56   160   166   am
    57   160   159    1
    58    69    68    1
    59   152   151    1
    60   140   139    1
    61   159   162    1
    62   151   153    1
    63    88    89    1
    64    89    90    1
    65   162   163    1
    66   142   139    1
    67   142   143    1
    68   105   106    1
    69   105   107    1
    70    68    67    1
    71    68    71    1
    72   188   186    1
    73   168   177   am
    74   168   169    2
    75   187   186    1
    76    72    71    1
    77    72    73    1
    78   117   116    2
    79   177   178    1
    80   139   138    1
    81    53    54    1
    82    75    73   ar
    83   114   115    1
    84   165   163   ar
    85   186   185    1
    86   163   164   ar
    87   138   129   am
    88    73    74   ar
    89   143   145   am
    90   143   144    2
    91   116   115    1
    92   116   118   am
    93    56    55    2
    94    57    54    1
    95   178   179    1
    96   120   121    2
    97   120   119    1
    98   127   128    1
    99    54    55    1
   100   129   130    2
   101   129   128    1
   102   181   179   am
   103   181   182    1
   104   185   182    1
   105   119   118    1
   106   119   122    1
   107   179   180    2
   108   182   183    1
   109   128   131    1
   110    64    63    1
   111    64    65    1
   112    66    65    1
   113   132   131    1
   114   132   133    1
   115   123   122    1
   116   123   124    1
   117   137   135    1
   118   135   136    1
   119   135   134    2
   120    63    62    1
   121   183   189   am
   122   183   184    2
   123   134   133    1
   124     8     6    1
   125   189   190    1
   126    58    59    1
   127    62    59    1
   128   124   126   ar
   129   124   125   ar
   130    51    50    1
   131    59    60    1
   132   190   193    1
   133   190   191    1
   134     6     5    1
   135    61    60    2
   136     7     5    1
   137   193   194    1
   138     5     2    1
   139   191   192    2
   140    52    50    1
   141    50    47    1
   142    43    41   ar
   143    43    45   ar
   144     4     3    2
   145    47    48    1
   146    47    46    1
   147    41    40   ar
   148    45    44   ar
   149    48    49    2
   150     2     3    1
   151     2     1    1
   152     3     9   am
   153    33    32    2
   154    34    32   am
   155    32    31    1
   156     9    10    1
   157    40    39    1
   158    40    42   ar
   159    10    11    1
   160    44    42   ar
   161    23    22    1
   162    23    24    1
   163    30    31    1
   164    30    27    1
   165    39    36    1
   166    26    24   am
   167    26    27    1
   168    11    12    2
   169    11    13   am
   170    16    15    2
   171    22    15   am
   172    24    25    2
   173    15    14    1
   174    27    28    1
   175    13    14    1
   176    35    36    1
   177    35    28   am
   178    36    37    1
   179    28    29    2
   180    14    17    1
   181    37    38    2
   182    17    18    1
   183    18    19    1
   184    19    21   ar
   185    19    20   ar
