@<TRIPOS>MOLECULE
tmp/2ijnA00.pdb
 150 142 0 0 0
SMALL
GASTEIGER

@<TRIPOS>ATOM
      1  N          1.9110   47.2720   46.7860 N.3   188  PHE188     -0.1241
      2  CA         2.6590   48.3720   47.4040 C.3   188  PHE188      0.1605
      3  C          1.8170   49.4490   48.1050 C.2   188  PHE188      0.2264
      4  O          2.3650   50.3490   48.7410 O.2   188  PHE188     -0.2867
      5  CB         3.5820   49.0330   46.3570 C.3   188  PHE188      0.0534
      6  CG         4.6530   48.1100   45.8120 C.ar  188  PHE188     -0.0203
      7  CD1        5.5460   47.4810   46.6630 C.ar  188  PHE188     -0.0042
      8  CD2        4.7490   47.8540   44.4520 C.ar  188  PHE188     -0.0042
      9  CE1        6.5140   46.6090   46.1680 C.ar  188  PHE188     -0.0003
     10  CE2        5.7080   46.9880   43.9530 C.ar  188  PHE188     -0.0003
     11  CZ         6.5910   46.3650   44.8120 C.ar  188  PHE188     -0.0000
     12  N          2.5240   46.2670   55.9600 N.3   192  PRO192     -0.2116
     13  CA         2.5160   44.8380   56.2940 C.3   192  PRO192      0.1372
     14  C          1.1760   44.3720   56.8880 C.2   192  PRO192      0.2244
     15  O          0.6820   43.2920   56.5590 O.2   192  PRO192     -0.2868
     16  CB         3.6760   44.7150   57.2830 C.3   192  PRO192      0.0268
     17  CG         4.6500   45.7380   56.7610 C.3   192  PRO192      0.0207
     18  CD         3.7450   46.9220   56.4640 C.3   192  PRO192      0.0892
     19  N         -1.5500   44.3750   54.2950 N.3   195  ARG195     -0.1245
     20  CA        -1.2850   43.2720   53.3740 C.3   195  ARG195      0.1563
     21  C         -1.8950   41.9880   53.9280 C.2   195  ARG195      0.2260
     22  O         -2.6060   41.2690   53.2250 O.2   195  ARG195     -0.2867
     23  CB         0.2210   43.0680   53.1740 C.3   195  ARG195      0.0307
     24  CG         0.5630   42.0120   52.1260 C.3   195  ARG195      0.0489
     25  CD         2.0640   41.7190   52.0700 C.3   195  ARG195      0.2205
     26  NE         2.3600   40.5880   51.1920 N.pl3 195  ARG195     -0.0865
     27  CZ         2.3800   40.6450   49.8610 C.cat 195  ARG195      0.5346
     28  NH1        2.1270   41.7880   49.2350 N.pl3 195  ARG195      0.1354
     29  NH2        2.6460   39.5550   49.1530 N.pl3 195  ARG195      0.1354
     30  N          9.7960   48.9210   38.9600 N.3   283  SER283     -0.1217
     31  CA         8.7730   48.3900   39.8470 C.3   283  SER283      0.1889
     32  C          7.3890   48.4340   39.1920 C.2   283  SER283      0.2288
     33  O          6.7120   47.4130   39.0790 O.2   283  SER283     -0.2866
     34  CB         8.7590   49.1920   41.1530 C.3   283  SER283      0.2089
     35  OG         7.7150   48.7760   42.0160 O.3   283  SER283     -0.2183
     36  N          3.2700   42.3710   43.4820 N.3   311  ASN311     -0.1225
     37  CA         4.2920   43.3100   43.9400 C.3   311  ASN311      0.1785
     38  C          5.4690   43.1200   43.0030 C.2   311  ASN311      0.2598
     39  O          6.2440   42.1810   43.1650 O.2   311  ASN311     -0.2718
     40  CB         4.7490   42.9880   45.3600 C.3   311  ASN311      0.1169
     41  CG         3.6560   43.1560   46.3790 C.2   311  ASN311      0.2627
     42  OD1        2.6950   42.3880   46.4090 O.2   311  ASN311     -0.2716
     43  ND2        3.7960   44.1710   47.2290 N.am  311  ASN311     -0.0877
     44  N          5.6110   44.0010   42.0230 N.am  312  GLY312     -0.1942
     45  CA         6.7060   43.8380   41.0860 C.3   312  GLY312      0.2014
     46  C          6.5740   42.5030   40.3750 C.2   312  GLY312      0.2639
     47  O          5.5890   42.2620   39.6800 O.2   312  GLY312     -0.2714
     48  N          7.5500   41.6210   40.5660 N.am  313  ASP313     -0.1957
     49  CA         7.5420   40.3040   39.9250 C.3   313  ASP313      0.1840
     50  C          6.9530   39.2330   40.8340 C.2   313  ASP313      0.2622
     51  O          6.7900   38.0850   40.4240 O.2   313  ASP313     -0.2715
     52  CB         8.9730   39.9020   39.5380 C.3   313  ASP313      0.1450
     53  CG         9.7970   39.4280   40.7330 C.2   313  ASP313      0.3671
     54  OD1        9.6930   40.0370   41.8170 O.co2 313  ASP313     -0.2456
     55  OD2       10.5610   38.4490   40.5830 O.co2 313  ASP313     -0.2456
     56  N          6.6400   39.6170   42.0670 N.am  314  ASP314     -0.1971
     57  CA         6.0920   38.6920   43.0500 C.3   314  ASP314      0.1709
     58  C          4.5760   38.6080   42.9190 C.2   314  ASP314      0.2293
     59  O          3.8600   39.6050   43.0640 O.2   314  ASP314     -0.2864
     60  CB         6.4990   39.1420   44.4520 C.3   314  ASP314      0.1436
     61  CG         6.3480   38.0460   45.4830 C.2   314  ASP314      0.3671
     62  OD1        5.1940   37.7240   45.8450 O.co2 314  ASP314     -0.2456
     63  OD2        7.3890   37.5060   45.9230 O.co2 314  ASP314     -0.2456
     64  N          6.6540   37.4900   48.5140 N.3   361  CYS361     -0.1221
     65  CA         7.5300   38.6020   48.8840 C.3   361  CYS361      0.1808
     66  C          8.3630   38.1230   50.0720 C.2   361  CYS361      0.2602
     67  O          8.6100   38.8750   51.0170 O.2   361  CYS361     -0.2717
     68  CB         6.7440   39.8710   49.2480 C.3   361  CYS361      0.0970
     69  SG         6.3760   41.0330   47.8940 S.3   361  CYS361     -0.0800
     70  N          8.7670   36.8520   50.0150 N.am  362  SER362     -0.1938
     71  CA         9.5810   36.2200   51.0560 C.3   362  SER362      0.2055
     72  C          8.9060   36.2220   52.4300 C.2   362  SER362      0.2643
     73  O          9.5630   36.0180   53.4540 O.2   362  SER362     -0.2714
     74  CB        10.9280   36.9420   51.1600 C.3   362  SER362      0.2130
     75  OG        11.5740   36.9920   49.9030 O.3   362  SER362     -0.2179
     76  N          7.5940   36.4350   52.4390 N.am  363  SER363     -0.1949
     77  CA         6.8350   36.5120   53.6770 C.3   363  SER363      0.1924
     78  C          5.6410   35.5680   53.7220 C.2   363  SER363      0.2314
     79  O          5.2690   34.9690   52.7160 O.2   363  SER363     -0.2863
     80  CB         6.3360   37.9440   53.8760 C.3   363  SER363      0.2116
     81  OG         7.4030   38.8720   53.7560 O.3   363  SER363     -0.2180
     82  N          2.2660   39.7180   59.6650 N.3   379  LEU379     -0.1245
     83  CA         3.2010   39.3130   58.6220 C.3   379  LEU379      0.1561
     84  C          4.5940   39.0440   59.1950 C.2   379  LEU379      0.2260
     85  O          5.1160   39.8400   59.9750 O.2   379  LEU379     -0.2867
     86  CB         3.3050   40.4010   57.5540 C.3   379  LEU379      0.0270
     87  CG         4.1350   40.0610   56.3190 C.3   379  LEU379      0.0019
     88  CD1        3.4000   39.0150   55.4790 C.3   379  LEU379      0.0001
     89  CD2        4.3590   41.3190   55.5080 C.3   379  LEU379      0.0001
     90  N          8.4640   36.3550   58.3380 N.3   381  ARG381     -0.1245
     91  CA         9.2750   35.7270   57.3030 C.3   381  ARG381      0.1563
     92  C         10.4070   34.9080   57.9010 C.2   381  ARG381      0.2260
     93  O         10.6350   34.9060   59.1100 O.2   381  ARG381     -0.2867
     94  CB         9.8840   36.7790   56.3640 C.3   381  ARG381      0.0307
     95  CG        10.8100   37.8060   57.0510 C.3   381  ARG381      0.0489
     96  CD        11.7530   38.4770   56.0470 C.3   381  ARG381      0.2205
     97  NE        12.7090   37.5280   55.4650 N.pl3 381  ARG381     -0.0865
     98  CZ        13.3090   37.6930   54.2870 C.cat 381  ARG381      0.5346
     99  NH1       13.0570   38.7720   53.5570 N.pl3 381  ARG381      0.1354
    100  NH2       14.1600   36.7830   53.8330 N.pl3 381  ARG381      0.1354
    101  N         13.9560   46.1260   58.5930 N.3   406  ASN406     -0.1240
    102  CA        13.2990   44.9200   59.0460 C.3   406  ASN406      0.1653
    103  C         12.5280   45.1200   60.3420 C.2   406  ASN406      0.2266
    104  O         11.4580   44.5330   60.5210 O.2   406  ASN406     -0.2867
    105  CB        14.2980   43.7740   59.1780 C.3   406  ASN406      0.1155
    106  CG        14.6590   43.1880   57.8300 C.2   406  ASN406      0.2627
    107  OD1       13.7890   43.0120   56.9770 O.2   406  ASN406     -0.2716
    108  ND2       15.9270   42.8840   57.6280 N.am  406  ASN406     -0.0877
    109  N          9.2910   46.9670   59.3000 N.3   409  MET409     -0.1230
    110  CA         8.3780   46.0880   58.5760 C.3   409  MET409      0.1702
    111  C          7.9070   44.8530   59.3390 C.2   409  MET409      0.2592
    112  O          6.7760   44.4160   59.1580 O.2   409  MET409     -0.2718
    113  CB         9.0070   45.6400   57.2560 C.3   409  MET409      0.0401
    114  CG         9.2900   46.7760   56.2980 C.3   409  MET409      0.0596
    115  SD         7.7950   47.6830   55.8310 S.3   409  MET409     -0.1393
    116  CE         7.1180   46.5860   54.5500 C.3   409  MET409      0.0692
    117  N          8.7620   44.3030   60.1980 N.am  410  TYR410     -0.1976
    118  CA         8.4100   43.0980   60.9380 C.3   410  TYR410      0.1639
    119  C          8.4070   43.2550   62.4500 C.2   410  TYR410      0.2290
    120  O          8.6280   42.2910   63.1900 O.2   410  TYR410     -0.2864
    121  CB         9.3460   41.9630   60.5200 C.3   410  TYR410      0.0560
    122  CG         9.2180   41.6160   59.0560 C.ar  410  TYR410     -0.0198
    123  CD1        8.0940   40.9460   58.5790 C.ar  410  TYR410     -0.0009
    124  CD2       10.2090   41.9750   58.1440 C.ar  410  TYR410     -0.0009
    125  CE1        7.9590   40.6420   57.2400 C.ar  410  TYR410      0.0417
    126  CE2       10.0860   41.6770   56.8010 C.ar  410  TYR410      0.0417
    127  CZ         8.9600   41.0090   56.3560 C.ar  410  TYR410      0.1957
    128  OH         8.8380   40.7000   55.0210 O.3   410  TYR410     -0.2866
    129  N          9.9730   49.2630   50.4880 N.3   443  TYR443     -0.1227
    130  CA         9.4130   49.0970   49.1460 C.3   443  TYR443      0.1736
    131  C         10.3040   49.7730   48.1090 C.2   443  TYR443      0.2596
    132  O          9.8120   50.3770   47.1590 O.2   443  TYR443     -0.2718
    133  CB         7.9910   49.6710   49.0540 C.3   443  TYR443      0.0548
    134  CG         6.9400   48.8210   49.7380 C.ar  443  TYR443     -0.0200
    135  CD1        7.2340   47.5280   50.1490 C.ar  443  TYR443     -0.0009
    136  CD2        5.6510   49.3160   49.9770 C.ar  443  TYR443     -0.0009
    137  CE1        6.2820   46.7460   50.7840 C.ar  443  TYR443      0.0417
    138  CE2        4.6850   48.5390   50.6130 C.ar  443  TYR443      0.0417
    139  CZ         5.0110   47.2570   51.0150 C.ar  443  TYR443      0.1957
    140  OH         4.0880   46.4720   51.6660 O.3   443  TYR443     -0.2866
    141  N         11.6160   49.6740   48.3020 N.am  444  GLY444     -0.1957
    142  CA        12.5530   50.2680   47.3640 C.3   444  GLY444      0.1869
    143  C         12.9030   51.7310   47.5860 C.2   444  GLY444      0.2309
    144  O         13.9630   52.1840   47.1490 O.2   444  GLY444     -0.2863
    145  N         11.6500   50.0180   43.7780 N.3   551  SER551     -0.1217
    146  CA        12.8920   49.2350   43.7560 C.3   551  SER551      0.1889
    147  C         13.7610   49.6140   42.5610 C.2   551  SER551      0.2288
    148  O         13.3390   49.4900   41.4130 O.2   551  SER551     -0.2866
    149  CB        12.5990   47.7290   43.7010 C.3   551  SER551      0.2089
    150  OG        12.1350   47.2570   44.9540 O.3   551  SER551     -0.2183
@<TRIPOS>BOND
     1    30    31    1
     2    33    32    2
     3    32    31    1
     4    52    49    1
     5    52    53    1
     6    47    46    2
     7    31    34    1
     8    49    48    1
     9    49    50    1
    10    46    48   am
    11    46    45    1
    12    51    50    2
    13    55    53   ar
    14    53    54   ar
    15    50    56   am
    16    45    44    1
    17    34    35    1
    18   148   147    2
    19    44    38   am
    20    56    57    1
    21   147   146    1
    22    58    57    1
    23    58    59    2
    24    38    39    2
    25    38    37    1
    26    57    60    1
    27    36    37    1
    28   149   146    1
    29   149   150    1
    30   146   145    1
    31    37    40    1
    32    10     8   ar
    33    10    11   ar
    34     8     6   ar
    35    60    61    1
    36    11     9   ar
    37    40    41    1
    38    61    62   ar
    39    61    63   ar
    40     6     5    1
    41     6     7   ar
    42     9     7   ar
    43     5     2    1
    44    41    42    2
    45    41    43   am
    46     1     2    1
    47   144   143    2
    48   132   131    2
    49   142   143    1
    50   142   141    1
    51     2     3    1
    52    69    68    1
    53     3     4    2
    54   131   141   am
    55   131   130    1
    56    64    65    1
    57    65    68    1
    58    65    66    1
    59   133   130    1
    60   133   134    1
    61   130   129    1
    62    29    27    1
    63    28    27    1
    64   134   136   ar
    65   134   135   ar
    66    27    26    2
    67    75    74    1
    68   136   138   ar
    69    70    66   am
    70    70    71    1
    71    66    67    2
    72   135   137   ar
    73   138   139   ar
    74   137   139   ar
    75   139   140    1
    76    71    74    1
    77    71    72    1
    78    26    25    1
    79    25    24    1
    80    24    23    1
    81    72    76   am
    82    72    73    2
    83    76    77    1
    84    79    78    2
    85    23    20    1
    86    22    21    2
    87    20    21    1
    88    20    19    1
    89    99    98    1
    90    77    78    1
    91    77    80    1
    92    81    80    1
    93   100    98    1
    94    98    97    2
    95   116   115    1
    96   128   127    1
    97    97    96    1
    98    88    87    1
    99    89    87    1
   100   115   114    1
   101    12    13    1
   102    12    18    1
   103    96    95    1
   104    13    14    1
   105    13    16    1
   106   114   113    1
   107    87    86    1
   108   127   126   ar
   109   127   125   ar
   110    94    95    1
   111    94    91    1
   112    18    17    1
   113    15    14    2
   114    17    16    1
   115   126   124   ar
   116   107   106    2
   117   125   123   ar
   118   113   110    1
   119    91    92    1
   120    91    90    1
   121    86    83    1
   122   108   106   am
   123   106   105    1
   124    92    93    2
   125   124   122   ar
   126   110   109    1
   127   110   111    1
   128   123   122   ar
   129   101   102    1
   130    83    84    1
   131    83    82    1
   132   102   105    1
   133   102   103    1
   134   122   121    1
   135   112   111    2
   136    84    85    2
   137   111   117   am
   138   117   118    1
   139   103   104    2
   140   121   118    1
   141   118   119    1
   142   119   120    2
