@<TRIPOS>MOLECULE
tmp/2ikgA01.pdb
 195 198 0 0 0
SMALL
GASTEIGER

@<TRIPOS>ATOM
      1  N         15.1780   -8.7460   25.4500 N.3    21  TRP21      -0.1241
      2  CA        15.6600   -9.4190   24.2420 C.3    21  TRP21       0.1605
      3  C         16.7650  -10.4160   24.6400 C.2    21  TRP21       0.2264
      4  O         17.7430  -10.0410   25.3080 O.2    21  TRP21      -0.2867
      5  CB        16.2130   -8.4190   23.2340 C.3    21  TRP21       0.0550
      6  CG        16.8570   -9.0680   22.0520 C.ar   21  TRP21       0.0003
      7  CD1       16.4410  -10.1620   21.3640 C.ar   21  TRP21       0.0946
      8  CD2       18.0510   -8.6430   21.3930 C.ar   21  TRP21       0.0152
      9  NE1       17.2990  -10.4510   20.3360 N.ar   21  TRP21      -0.2442
     10  CE2       18.3090   -9.5250   20.3310 C.ar   21  TRP21       0.0810
     11  CE3       18.9390   -7.5920   21.6060 C.ar   21  TRP21       0.0012
     12  CZ2       19.4210   -9.3570   19.5260 C.ar   21  TRP21       0.0191
     13  CZ3       20.0380   -7.4360   20.7940 C.ar   21  TRP21       0.0001
     14  CH2       20.2750   -8.3180   19.7470 C.ar   21  TRP21       0.0015
     15  N          8.5500  -10.1280   18.8770 N.3    48  VAL48      -0.1231
     16  CA         9.5800  -10.8780   18.1580 C.3    48  VAL48       0.1692
     17  C         10.5430  -11.5540   19.1380 C.2    48  VAL48       0.2592
     18  O         11.3670  -12.3990   18.7400 O.2    48  VAL48      -0.2718
     19  CB        10.3480   -9.9660   17.1710 C.3    48  VAL48       0.0266
     20  CG1       11.3050   -9.0420   17.9290 C.3    48  VAL48       0.0020
     21  CG2       11.1000  -10.7700   16.1050 C.3    48  VAL48       0.0020
     22  N         10.5190  -11.1830   20.4290 N.am   49  TYR49      -0.1976
     23  CA        11.4510  -11.7810   21.4050 C.3    49  TYR49       0.1639
     24  C         10.9900  -13.1700   21.8400 C.2    49  TYR49       0.2290
     25  O         11.8130  -13.9400   22.3910 O.2    49  TYR49      -0.2864
     26  CB        11.6790  -10.9320   22.6650 C.3    49  TYR49       0.0560
     27  CG        12.2070   -9.5330   22.4510 C.ar   49  TYR49      -0.0198
     28  CD1       12.8250   -9.1810   21.2710 C.ar   49  TYR49      -0.0009
     29  CD2       12.1020   -8.5250   23.3960 C.ar   49  TYR49      -0.0009
     30  CE1       13.3200   -7.9110   21.0420 C.ar   49  TYR49       0.0417
     31  CE2       12.5800   -7.2400   23.1890 C.ar   49  TYR49       0.0417
     32  CZ        13.1850   -6.9380   21.9950 C.ar   49  TYR49       0.1957
     33  OH        13.6740   -5.6730   21.7710 O.3    49  TYR49      -0.2866
     34  N          5.9560   -5.8060   15.3620 N.3    80  TRP80      -0.1227
     35  CA         7.0000   -6.3880   14.5120 C.3    80  TRP80       0.1737
     36  C          6.7830   -6.0050   13.0400 C.2    80  TRP80       0.2595
     37  O          5.6330   -5.6520   12.6780 O.2    80  TRP80      -0.2718
     38  CB         7.1120   -7.9030   14.8140 C.3    80  TRP80       0.0564
     39  CG         8.1880   -8.4350   13.9220 C.ar   80  TRP80       0.0003
     40  CD1        8.1410   -9.2940   12.9050 C.ar   80  TRP80       0.0946
     41  CD2        9.5620   -8.0320   13.9950 C.ar   80  TRP80       0.0152
     42  NE1        9.3390   -9.5060   12.3140 N.ar   80  TRP80      -0.2442
     43  CE2       10.2580   -8.7260   12.9900 C.ar   80  TRP80       0.0810
     44  CE3       10.2630   -7.1740   14.8320 C.ar   80  TRP80       0.0012
     45  CZ2       11.6340   -8.5720   12.7900 C.ar   80  TRP80       0.0191
     46  CZ3       11.6240   -7.0230   14.6290 C.ar   80  TRP80       0.0001
     47  CH2       12.3310   -7.7150   13.6190 C.ar   80  TRP80       0.0015
     48  N          7.8130   -6.0200   12.2480 N.am   81  CYS81      -0.1970
     49  CA         7.9160   -5.6190   10.8740 C.3    81  CYS81       0.1712
     50  C          6.8920   -6.3030    9.9720 C.2    81  CYS81       0.2296
     51  O          6.4740   -5.6950    8.9730 O.2    81  CYS81      -0.2864
     52  CB         9.3460   -5.9220   10.3800 C.3    81  CYS81       0.0983
     53  SG        10.5550   -4.9870   11.3510 S.3    81  CYS81      -0.0798
     54  N          8.5440   -1.2330   15.7640 N.3   111  HIS111     -0.1226
     55  CA         9.8430   -1.7670   16.1830 C.3   111  HIS111      0.1752
     56  C         10.9600   -1.2950   15.2610 C.2   111  HIS111      0.2596
     57  O         12.0830   -0.9840   15.7210 O.2   111  HIS111     -0.2718
     58  CB         9.7580   -3.2860   16.2490 C.3   111  HIS111      0.0759
     59  CG        10.8120   -3.9520   17.0700 C.ar  111  HIS111      0.0818
     60  ND1       10.5250   -5.1200   17.7270 N.ar  111  HIS111     -0.2268
     61  CD2       12.0940   -3.6560   17.3560 C.ar  111  HIS111      0.1154
     62  CE1       11.5990   -5.5130   18.3950 C.ar  111  HIS111      0.1986
     63  NE2       12.6010   -4.6450   18.1730 N.ar  111  HIS111     -0.2212
     64  N         10.7060   -1.2860   13.9560 N.am  112  TRP112     -0.1976
     65  CA        11.6030   -0.7950   12.9080 C.3   112  TRP112      0.1640
     66  C         10.8070   -0.0450   11.8450 C.2   112  TRP112      0.2290
     67  O          9.6330   -0.3980   11.6610 O.2   112  TRP112     -0.2864
     68  CB        12.3660   -1.9440   12.1960 C.3   112  TRP112      0.0576
     69  CG        13.3490   -2.5980   13.1260 C.ar  112  TRP112      0.0006
     70  CD1       13.1160   -3.5870   14.0350 C.ar  112  TRP112      0.0946
     71  CD2       14.7480   -2.2850   13.2410 C.ar  112  TRP112      0.0152
     72  NE1       14.2590   -3.9260   14.7030 N.ar  112  TRP112     -0.2442
     73  CE2       15.2760   -3.1210   14.2200 C.ar  112  TRP112      0.0810
     74  CE3       15.5830   -1.3710   12.5810 C.ar  112  TRP112      0.0012
     75  CZ2       16.6050   -3.1040   14.6140 C.ar  112  TRP112      0.0191
     76  CZ3       16.9000   -1.3710   12.9810 C.ar  112  TRP112      0.0001
     77  CH2       17.4110   -2.2220   13.9750 C.ar  112  TRP112      0.0015
     78  N         11.1260   -0.4540    8.7540 N.3   114  THR114     -0.1218
     79  CA        11.0180   -1.3680    7.6560 C.3   114  THR114      0.1862
     80  C          9.8730   -2.3680    7.8020 C.2   114  THR114      0.2287
     81  O          9.9300   -3.1980    8.7120 O.2   114  THR114     -0.2866
     82  CB        12.2850   -2.2310    7.5570 C.3   114  THR114      0.1770
     83  OG1       12.5610   -2.8200    8.8360 O.3   114  THR114     -0.2211
     84  CG2       13.4590   -1.3440    7.2230 C.3   114  THR114      0.0375
     85  N          8.0070   -5.6980    6.4480 N.3   116  PHE116     -0.1241
     86  CA         8.2540   -6.9460    5.7650 C.3   116  PHE116      0.1605
     87  C          6.9430   -7.6270    5.3480 C.2   116  PHE116      0.2264
     88  O          5.9220   -7.3660    5.9730 O.2   116  PHE116     -0.2867
     89  CB         9.0060   -7.8990    6.6730 C.3   116  PHE116      0.0534
     90  CG        10.3200   -7.4780    7.2690 C.ar  116  PHE116     -0.0203
     91  CD1       11.0250   -6.3650    6.8240 C.ar  116  PHE116     -0.0042
     92  CD2       10.8440   -8.2480    8.3010 C.ar  116  PHE116     -0.0042
     93  CE1       12.2140   -6.0170    7.4350 C.ar  116  PHE116     -0.0003
     94  CE2       12.0260   -7.8810    8.9040 C.ar  116  PHE116     -0.0003
     95  CZ        12.7290   -6.7810    8.4690 C.ar  116  PHE116     -0.0000
     96  N         11.2680  -12.8930    9.4840 N.3   123  PHE123     -0.1241
     97  CA        12.1980  -12.3750    8.4910 C.3   123  PHE123      0.1605
     98  C         12.0460  -13.1430    7.1700 C.2   123  PHE123      0.2264
     99  O         12.8700  -14.0050    6.8830 O.2   123  PHE123     -0.2867
    100  CB        13.6620  -12.4900    8.9160 C.3   123  PHE123      0.0534
    101  CG        14.1100  -11.4570    9.9290 C.ar  123  PHE123     -0.0203
    102  CD1       14.7380  -10.2850    9.5510 C.ar  123  PHE123     -0.0042
    103  CD2       13.8790  -11.6880   11.2770 C.ar  123  PHE123     -0.0042
    104  CE1       15.1260   -9.3590   10.4880 C.ar  123  PHE123     -0.0003
    105  CE2       14.2530  -10.7700   12.2300 C.ar  123  PHE123     -0.0003
    106  CZ        14.8840   -9.5940   11.8240 C.ar  123  PHE123     -0.0000
    107  N         14.3750    2.8220   16.1700 N.3   161  ASN161     -0.1240
    108  CA        15.2580    2.7100   15.0120 C.3   161  ASN161      0.1653
    109  C         14.8420    3.5800   13.8420 C.2   161  ASN161      0.2266
    110  O         15.1420    3.3110   12.6740 O.2   161  ASN161     -0.2867
    111  CB        15.3370    1.2570   14.5550 C.3   161  ASN161      0.1155
    112  CG        15.8180    0.3520   15.6770 C.2   161  ASN161      0.2627
    113  OD1       16.9530    0.5150   16.1420 O.2   161  ASN161     -0.2716
    114  ND2       14.9460   -0.5840   16.0860 N.am  161  ASN161     -0.0877
    115  N         18.8560    1.7800   23.9280 N.3   210  TYR210     -0.1241
    116  CA        18.9690    0.3200   24.0310 C.3   210  TYR210      0.1605
    117  C         20.4190   -0.1400   23.8900 C.2   210  TYR210      0.2264
    118  O         21.2700    0.6430   23.4700 O.2   210  TYR210     -0.2867
    119  CB        18.0170   -0.2970   23.0270 C.3   210  TYR210      0.0534
    120  CG        18.2400   -0.4730   21.5650 C.ar  210  TYR210     -0.0201
    121  CD1       19.3130   -1.0980   20.9660 C.ar  210  TYR210     -0.0009
    122  CD2       17.2750   -0.0100   20.6720 C.ar  210  TYR210     -0.0009
    123  CE1       19.4980   -1.2630   19.6320 C.ar  210  TYR210      0.0417
    124  CE2       17.3870   -0.1540   19.3030 C.ar  210  TYR210      0.0417
    125  CZ        18.5060   -0.7740   18.8030 C.ar  210  TYR210      0.1957
    126  OH        18.6850   -0.9800   17.4630 O.3   210  TYR210     -0.2866
    127  N         25.8440  -12.3740   17.2710 N.3   220  TRP220     -0.1241
    128  CA        26.8550  -12.2650   16.2240 C.3   220  TRP220      0.1605
    129  C         28.1520  -11.6550   16.7370 C.2   220  TRP220      0.2264
    130  O         28.9240  -11.1730   15.9110 O.2   220  TRP220     -0.2867
    131  CB        26.3000  -11.4110   15.0750 C.3   220  TRP220      0.0550
    132  CG        25.5090  -10.2100   15.5230 C.ar  220  TRP220      0.0003
    133  CD1       25.9940   -8.9830   15.8590 C.ar  220  TRP220      0.0946
    134  CD2       24.0850  -10.1390   15.6790 C.ar  220  TRP220      0.0152
    135  NE1       24.9800   -8.1480   16.2200 N.ar  220  TRP220     -0.2442
    136  CE2       23.7990   -8.8190   16.1140 C.ar  220  TRP220      0.0810
    137  CE3       23.0110  -11.0110   15.5000 C.ar  220  TRP220      0.0012
    138  CZ2       22.5110   -8.3610   16.3720 C.ar  220  TRP220      0.0191
    139  CZ3       21.7340  -10.5580   15.7580 C.ar  220  TRP220      0.0001
    140  CH2       21.4840   -9.2490   16.1910 C.ar  220  TRP220      0.0015
    141  N         23.0900   -3.4470   16.4240 N.3   299  CYS299     -0.1221
    142  CA        21.9180   -3.8140   15.6760 C.3   299  CYS299      0.1808
    143  C         21.8110   -3.0960   14.3240 C.2   299  CYS299      0.2601
    144  O         21.3840   -1.9560   14.2760 O.2   299  CYS299     -0.2717
    145  CB        20.6610   -3.4880   16.4730 C.3   299  CYS299      0.0970
    146  SG        20.3940   -4.5810   17.8920 S.3   299  CYS299     -0.0800
    147  N         22.1820   -3.8050   13.2860 N.am  300  ALA300     -0.1965
    148  CA        22.0840   -3.3310   11.9000 C.3   300  ALA300      0.1728
    149  C         22.0840   -4.4370   10.8710 C.2   300  ALA300      0.2616
    150  O         23.1880   -4.6990   10.3750 O.2   300  ALA300     -0.2715
    151  CB        23.2890   -2.4160   11.6190 C.3   300  ALA300      0.0334
    152  N         21.0210   -5.1210   10.4530 N.am  301  LEU301     -0.1977
    153  CA        21.1930   -6.3600    9.6970 C.3   301  LEU301      0.1596
    154  C         21.4100   -6.2380    8.2010 C.2   301  LEU301      0.2287
    155  O         20.6240   -5.5640    7.5380 O.2   301  LEU301     -0.2864
    156  CB        19.9630   -7.2800    9.8330 C.3   301  LEU301      0.0297
    157  CG        19.5830   -7.6110   11.2770 C.3   301  LEU301      0.0022
    158  CD1       18.2510   -8.3610   11.3080 C.3   301  LEU301      0.0001
    159  CD2       20.7060   -8.3940   11.9400 C.3   301  LEU301      0.0001
    160  N         18.8140   -6.4340    5.6780 N.3   304  CYS304     -0.1235
    161  CA        17.8550   -5.3480    5.4510 C.3   304  CYS304      0.1677
    162  C         18.4110   -4.1120    4.7670 C.2   304  CYS304      0.2270
    163  O         17.6950   -3.1150    4.6190 O.2   304  CYS304     -0.2867
    164  CB        17.2560   -4.9350    6.8090 C.3   304  CYS304      0.0956
    165  SG        16.4120   -6.2820    7.6600 S.3   304  CYS304     -0.0801
    166  N         15.4470    1.1600    5.1770 N.3   310  TYR310     -0.1228
    167  CA        16.5790    0.8720    6.0460 C.3   310  TYR310      0.1721
    168  C         17.0820    2.1470    6.7000 C.2   310  TYR310      0.2437
    169  O         17.2650    3.1370    5.9830 O.2   310  TYR310     -0.2733
    170  CB        17.7230    0.2870    5.2240 C.3   310  TYR310      0.0547
    171  CG        18.9180   -0.0870    6.0640 C.ar  310  TYR310     -0.0200
    172  CD1       18.9010   -1.1790    6.9180 C.ar  310  TYR310     -0.0009
    173  CD2       20.0850    0.6380    6.0090 C.ar  310  TYR310     -0.0009
    174  CE1       19.9900   -1.5230    7.6880 C.ar  310  TYR310      0.0417
    175  CE2       21.2050    0.3220    6.7610 C.ar  310  TYR310      0.0417
    176  CZ        21.1420   -0.7660    7.6010 C.ar  310  TYR310      0.1957
    177  OH        22.2500   -1.1040    8.3510 O.3   310  TYR310     -0.2866
    178  N         17.1980    2.2030    8.0090 N.am  311  PRO311     -0.2718
    179  CA        17.4170    3.4980    8.6590 C.3   311  PRO311      0.1535
    180  C         18.8540    3.9610    8.7410 C.2   311  PRO311      0.2598
    181  O         19.0690    5.1280    9.0530 O.2   311  PRO311     -0.2715
    182  CB        16.8920    3.2290   10.0750 C.3   311  PRO311      0.0310
    183  CG        17.2350    1.7840   10.3100 C.3   311  PRO311      0.0237
    184  CD        17.0360    1.1060    8.9740 C.3   311  PRO311      0.0939
    185  N         19.8310    3.0950    8.4900 N.am  312  PHE312     -0.1974
    186  CA        21.1810    3.5200    8.8260 C.3   312  PHE312      0.1639
    187  C         22.0830    3.8180    7.6510 C.2   312  PHE312      0.2290
    188  O         23.3090    3.7260    7.8210 O.2   312  PHE312     -0.2864
    189  CB        21.8100    2.4230    9.6960 C.3   312  PHE312      0.0560
    190  CG        20.9430    2.0720   10.9000 C.ar  312  PHE312     -0.0200
    191  CD1       20.2870    3.0150   11.6590 C.ar  312  PHE312     -0.0042
    192  CD2       20.7940    0.7410   11.2250 C.ar  312  PHE312     -0.0042
    193  CE1       19.5040    2.6580   12.7560 C.ar  312  PHE312     -0.0003
    194  CE2       20.0690    0.3720   12.3280 C.ar  312  PHE312     -0.0003
    195  CZ        19.4040    1.3150   13.0880 C.ar  312  PHE312     -0.0000
@<TRIPOS>BOND
     1   163   162    2
     2   162   161    1
     3   166   167    1
     4   170   167    1
     5   170   171    1
     6    87    86    1
     7    87    88    2
     8   161   160    1
     9   161   164    1
    10    86    85    1
    11    86    89    1
    12   169   168    2
    13   173   171   ar
    14   173   175   ar
    15   167   168    1
    16   171   172   ar
    17    89    90    1
    18   168   178   am
    19   175   176   ar
    20   164   165    1
    21    91    90   ar
    22    91    93   ar
    23    99    98    2
    24   172   174   ar
    25    98    97    1
    26    84    82    1
    27    90    92   ar
    28    93    95   ar
    29   155   154    2
    30    82    79    1
    31    82    83    1
    32   176   174   ar
    33   176   177    1
    34   187   188    2
    35   187   186    1
    36    79    80    1
    37    79    78    1
    38    80    81    2
    39   178   179    1
    40   178   184    1
    41   154   153    1
    42    92    94   ar
    43    95    94   ar
    44   185   180   am
    45   185   186    1
    46    97   100    1
    47    97    96    1
    48   179   180    1
    49   179   182    1
    50   180   181    2
    51   186   189    1
    52   100   101    1
    53    51    50    2
    54   184   183    1
    55   102   101   ar
    56   102   104   ar
    57   189   190    1
    58   153   156    1
    59   153   152    1
    60   156   157    1
    61   101   103   ar
    62    50    49    1
    63   182   183    1
    64   150   149    2
    65    52    49    1
    66    52    53    1
    67   152   149   am
    68   104   106   ar
    69   149   148    1
    70    49    48    1
    71   190   192   ar
    72   190   191   ar
    73   192   194   ar
    74   103   105   ar
    75   157   158    1
    76   157   159    1
    77   151   148    1
    78   191   193   ar
    79    67    66    2
    80   106   105   ar
    81    66    65    1
    82   148   147    1
    83    68    65    1
    84    68    69    1
    85    48    36   am
    86    42    40   ar
    87    42    43   ar
    88   194   195   ar
    89    74    76   ar
    90    74    71   ar
    91   110   109    2
    92    37    36    2
    93   193   195   ar
    94    45    43   ar
    95    45    47   ar
    96    40    39   ar
    97    65    64    1
    98    76    77   ar
    99    43    41   ar
   100    36    35    1
   101    69    71   ar
   102    69    70   ar
   103    71    73   ar
   104   147   143   am
   105    47    46   ar
   106   109   108    1
   107    39    41   ar
   108    39    38    1
   109    64    56   am
   110    77    75   ar
   111    41    44   ar
   112    70    72   ar
   113    73    75   ar
   114    73    72   ar
   115   144   143    2
   116   143   142    1
   117    35    38    1
   118    35    34    1
   119   111   108    1
   120   111   112    1
   121    46    44   ar
   122   108   107    1
   123   131   132    1
   124   131   128    1
   125    56    57    2
   126    56    55    1
   127   137   134   ar
   128   137   139   ar
   129   132   134   ar
   130   132   133   ar
   131   142   141    1
   132   142   145    1
   133   112   114   am
   134   112   113    2
   135   134   136   ar
   136   139   140   ar
   137    54    55    1
   138   133   135   ar
   139   130   129    2
   140    21    19    1
   141   136   135   ar
   142   136   138   ar
   143    55    58    1
   144   140   138   ar
   145   128   129    1
   146   128   127    1
   147    58    59    1
   148   145   146    1
   149    59    61   ar
   150    59    60   ar
   151    19    20    1
   152    19    16    1
   153    61    63   ar
   154   126   125    1
   155    60    62   ar
   156    16    15    1
   157    16    17    1
   158    63    62   ar
   159    18    17    2
   160   125   124   ar
   161   125   123   ar
   162    17    22   am
   163   124   122   ar
   164    12    14   ar
   165    12    10   ar
   166   123   121   ar
   167    14    13   ar
   168    10     9   ar
   169    10     8   ar
   170     9     7   ar
   171    22    23    1
   172   122   120   ar
   173    13    11   ar
   174   121   120   ar
   175    30    28   ar
   176    30    32   ar
   177    28    27   ar
   178     7     6   ar
   179     8    11   ar
   180     8     6   ar
   181    23    24    1
   182    23    26    1
   183   120   119    1
   184    33    32    1
   185    24    25    2
   186    32    31   ar
   187     6     5    1
   188    27    26    1
   189    27    29   ar
   190   119   116    1
   191    31    29   ar
   192     5     2    1
   193   118   117    2
   194   117   116    1
   195   115   116    1
   196     2     3    1
   197     2     1    1
   198     3     4    2
