@<TRIPOS>MOLECULE
tmp/2ikhA01.pdb
 195 198 0 0 0
SMALL
GASTEIGER

@<TRIPOS>ATOM
      1  N         15.3680   -8.6980   25.5500 N.3    20  TRP20      -0.1241
      2  CA        15.8490   -9.3780   24.3450 C.3    20  TRP20       0.1605
      3  C         16.9240  -10.3850   24.7150 C.2    20  TRP20       0.2264
      4  O         17.9110  -10.0420   25.3900 O.2    20  TRP20      -0.2867
      5  CB        16.4140   -8.3570   23.3540 C.3    20  TRP20       0.0550
      6  CG        17.0000   -8.9390   22.1080 C.ar   20  TRP20       0.0003
      7  CD1       16.5480   -9.9860   21.3800 C.ar   20  TRP20       0.0946
      8  CD2       18.1860   -8.4880   21.4330 C.ar   20  TRP20       0.0152
      9  NE1       17.3640  -10.2440   20.2880 N.ar   20  TRP20      -0.2442
     10  CE2       18.3710   -9.3260   20.3120 C.ar   20  TRP20       0.0810
     11  CE3       19.1030   -7.4750   21.6600 C.ar   20  TRP20       0.0012
     12  CZ2       19.4420   -9.1590   19.4380 C.ar   20  TRP20       0.0191
     13  CZ3       20.1700   -7.3010   20.7930 C.ar   20  TRP20       0.0001
     14  CH2       20.3200   -8.1480   19.6920 C.ar   20  TRP20       0.0015
     15  N          8.7600  -10.1390   18.9630 N.3    47  VAL47      -0.1231
     16  CA         9.7890  -10.8300   18.2280 C.3    47  VAL47       0.1692
     17  C         10.7680  -11.5030   19.1880 C.2    47  VAL47       0.2592
     18  O         11.5490  -12.3660   18.7780 O.2    47  VAL47      -0.2718
     19  CB        10.5310   -9.8740   17.2720 C.3    47  VAL47       0.0266
     20  CG1       11.4810   -8.9610   18.0400 C.3    47  VAL47       0.0020
     21  CG2       11.2670  -10.6730   16.2060 C.3    47  VAL47       0.0020
     22  N         10.7270  -11.1480   20.4900 N.am   48  TYR48      -0.1976
     23  CA        11.6570  -11.7440   21.4500 C.3    48  TYR48       0.1639
     24  C         11.1850  -13.1200   21.9140 C.2    48  TYR48       0.2290
     25  O         12.0100  -13.8470   22.4920 O.2    48  TYR48      -0.2864
     26  CB        11.8670  -10.8590   22.6830 C.3    48  TYR48       0.0560
     27  CG        12.4290   -9.4840   22.4140 C.ar   48  TYR48      -0.0198
     28  CD1       12.9820   -9.1020   21.2190 C.ar   48  TYR48      -0.0009
     29  CD2       12.3830   -8.4890   23.4160 C.ar   48  TYR48      -0.0009
     30  CE1       13.4870   -7.8260   20.9990 C.ar   48  TYR48       0.0417
     31  CE2       12.8800   -7.2180   23.2080 C.ar   48  TYR48       0.0417
     32  CZ        13.4310   -6.8800   22.0070 C.ar   48  TYR48       0.1957
     33  OH        13.9380   -5.6260   21.7460 O.3    48  TYR48      -0.2866
     34  N          6.1700   -5.8130   15.4730 N.3    79  TRP79      -0.1227
     35  CA         7.2030   -6.3730   14.5960 C.3    79  TRP79       0.1737
     36  C          6.9470   -5.9980   13.1280 C.2    79  TRP79       0.2595
     37  O          5.8430   -5.6010   12.7450 O.2    79  TRP79      -0.2718
     38  CB         7.3520   -7.9040   14.8440 C.3    79  TRP79       0.0564
     39  CG         8.5240   -8.3640   14.0190 C.ar   79  TRP79       0.0003
     40  CD1        8.4830   -9.2340   12.9650 C.ar   79  TRP79       0.0946
     41  CD2        9.8890   -7.9780   14.0960 C.ar   79  TRP79       0.0152
     42  NE1        9.6930   -9.4360   12.3970 N.ar   79  TRP79      -0.2442
     43  CE2       10.5930   -8.6710   13.0850 C.ar   79  TRP79       0.0810
     44  CE3       10.5960   -7.1200   14.9430 C.ar   79  TRP79       0.0012
     45  CZ2       11.9680   -8.5160   12.9070 C.ar   79  TRP79       0.0191
     46  CZ3       11.9610   -6.9770   14.7580 C.ar   79  TRP79       0.0001
     47  CH2       12.6240   -7.6780   13.7450 C.ar   79  TRP79       0.0015
     48  N          7.9290   -6.0680   12.2730 N.am   80  CYS80      -0.1970
     49  CA         8.0920   -5.6780   10.9010 C.3    80  CYS80       0.1712
     50  C          7.0860   -6.3520   10.0000 C.2    80  CYS80       0.2296
     51  O          6.7200   -5.7560    8.9770 O.2    80  CYS80      -0.2864
     52  CB         9.5560   -5.9390   10.4520 C.3    80  CYS80       0.0983
     53  SG        10.7650   -4.9780   11.4150 S.3    80  CYS80      -0.0798
     54  N          8.7070   -1.1940   15.8760 N.3   110  HIS110     -0.1226
     55  CA        10.0160   -1.7050   16.2600 C.3   110  HIS110      0.1752
     56  C         11.1570   -1.2810   15.3400 C.2   110  HIS110      0.2596
     57  O         12.2460   -0.9680   15.8570 O.2   110  HIS110     -0.2718
     58  CB         9.9320   -3.2340   16.3390 C.3   110  HIS110      0.0759
     59  CG        10.9670   -3.9030   17.1660 C.ar  110  HIS110      0.0818
     60  ND1       10.6880   -5.0980   17.7890 N.ar  110  HIS110     -0.2268
     61  CD2       12.2380   -3.6060   17.5070 C.ar  110  HIS110      0.1154
     62  CE1       11.7320   -5.4960   18.4600 C.ar  110  HIS110      0.1986
     63  NE2       12.7210   -4.6220   18.3220 N.ar  110  HIS110     -0.2212
     64  N         10.8990   -1.2770   14.0440 N.am  111  TRP111     -0.1976
     65  CA        11.7680   -0.8030   12.9770 C.3   111  TRP111      0.1640
     66  C         10.9680   -0.0920   11.9020 C.2   111  TRP111      0.2290
     67  O          9.7940   -0.4280   11.7340 O.2   111  TRP111     -0.2864
     68  CB        12.5070   -1.9980   12.3260 C.3   111  TRP111      0.0576
     69  CG        13.5120   -2.5970   13.2600 C.ar  111  TRP111      0.0006
     70  CD1       13.2830   -3.5390   14.2140 C.ar  111  TRP111      0.0946
     71  CD2       14.9110   -2.3030   13.3100 C.ar  111  TRP111      0.0152
     72  NE1       14.4350   -3.8490   14.8720 N.ar  111  TRP111     -0.2442
     73  CE2       15.4540   -3.1010   14.3370 C.ar  111  TRP111      0.0810
     74  CE3       15.7660   -1.4480   12.6170 C.ar  111  TRP111      0.0012
     75  CZ2       16.8000   -3.0740   14.6750 C.ar  111  TRP111      0.0191
     76  CZ3       17.0960   -1.4210   12.9540 C.ar  111  TRP111      0.0001
     77  CH2       17.6160   -2.2320   13.9780 C.ar  111  TRP111      0.0015
     78  N         11.2820   -0.4450    8.8480 N.3   113  THR113     -0.1218
     79  CA        11.1450   -1.3510    7.7270 C.3   113  THR113      0.1862
     80  C          9.9940   -2.3290    7.8600 C.2   113  THR113      0.2287
     81  O          9.9360   -3.0900    8.8200 O.2   113  THR113     -0.2866
     82  CB        12.4190   -2.1950    7.5700 C.3   113  THR113      0.1770
     83  OG1       12.7400   -2.7290    8.8840 O.3   113  THR113     -0.2211
     84  CG2       13.5950   -1.3730    7.1050 C.3   113  THR113      0.0375
     85  N          7.9980   -5.6800    6.5340 N.3   115  PHE115     -0.1241
     86  CA         8.2800   -6.9340    5.8330 C.3   115  PHE115      0.1605
     87  C          6.9670   -7.5700    5.4200 C.2   115  PHE115      0.2264
     88  O          5.9510   -7.3660    6.0530 O.2   115  PHE115     -0.2867
     89  CB         9.0450   -7.9020    6.7070 C.3   115  PHE115      0.0534
     90  CG        10.3750   -7.4880    7.3150 C.ar  115  PHE115     -0.0203
     91  CD1       11.1320   -6.3880    6.9440 C.ar  115  PHE115     -0.0042
     92  CD2       10.8720   -8.3130    8.3390 C.ar  115  PHE115     -0.0042
     93  CE1       12.3360   -6.0660    7.5350 C.ar  115  PHE115     -0.0003
     94  CE2       12.0620   -7.9750    8.9530 C.ar  115  PHE115     -0.0003
     95  CZ        12.7640   -6.8700    8.5800 C.ar  115  PHE115     -0.0000
     96  N         11.4570  -12.9450    9.4890 N.3   122  PHE122     -0.1241
     97  CA        12.3300  -12.3790    8.4620 C.3   122  PHE122      0.1605
     98  C         12.0720  -13.1630    7.1840 C.2   122  PHE122      0.2264
     99  O         12.8150  -14.0830    6.8760 O.2   122  PHE122     -0.2867
    100  CB        13.8060  -12.4730    8.8390 C.3   122  PHE122      0.0534
    101  CG        14.2940  -11.4010    9.7790 C.ar  122  PHE122     -0.0203
    102  CD1       14.8860  -10.2290    9.3400 C.ar  122  PHE122     -0.0042
    103  CD2       14.1840  -11.5790   11.1380 C.ar  122  PHE122     -0.0042
    104  CE1       15.3510   -9.2420   10.1750 C.ar  122  PHE122     -0.0003
    105  CE2       14.6350  -10.5820   11.9910 C.ar  122  PHE122     -0.0003
    106  CZ        15.2450   -9.4330   11.5430 C.ar  122  PHE122     -0.0000
    107  N         14.5330    2.9000   16.2060 N.3   160  ASN160     -0.1240
    108  CA        15.4560    2.7670   15.0910 C.3   160  ASN160      0.1653
    109  C         15.0500    3.6270   13.9070 C.2   160  ASN160      0.2266
    110  O         15.3540    3.2560   12.7770 O.2   160  ASN160     -0.2867
    111  CB        15.6040    1.3190   14.6170 C.3   160  ASN160      0.1155
    112  CG        16.0430    0.4060   15.7390 C.2   160  ASN160      0.2627
    113  OD1       17.1760    0.5320   16.1990 O.2   160  ASN160     -0.2716
    114  ND2       15.1750   -0.4980   16.1650 N.am  160  ASN160     -0.0877
    115  N         19.0370    1.8120   24.0280 N.3   209  TYR209     -0.1241
    116  CA        19.1600    0.3660   24.0790 C.3   209  TYR209      0.1605
    117  C         20.6100   -0.1110   23.9510 C.2   209  TYR209      0.2264
    118  O         21.4790    0.6360   23.5090 O.2   209  TYR209     -0.2867
    119  CB        18.2290   -0.2280   23.0600 C.3   209  TYR209      0.0534
    120  CG        18.4250   -0.4050   21.6020 C.ar  209  TYR209     -0.0201
    121  CD1       19.4940   -1.0810   21.0540 C.ar  209  TYR209     -0.0009
    122  CD2       17.4750    0.0810   20.7010 C.ar  209  TYR209     -0.0009
    123  CE1       19.7140   -1.2830   19.7080 C.ar  209  TYR209      0.0417
    124  CE2       17.6410   -0.1100   19.3370 C.ar  209  TYR209      0.0417
    125  CZ        18.7480   -0.7800   18.8590 C.ar  209  TYR209      0.1957
    126  OH        18.9020   -0.9690   17.5050 O.3   209  TYR209     -0.2866
    127  N         25.8030  -12.2480   17.2640 N.3   219  TRP219     -0.1241
    128  CA        26.8050  -12.1520   16.1950 C.3   219  TRP219      0.1605
    129  C         28.1200  -11.5490   16.6660 C.2   219  TRP219      0.2264
    130  O         28.9050  -11.1500   15.8020 O.2   219  TRP219     -0.2867
    131  CB        26.2510  -11.3210   15.0310 C.3   219  TRP219      0.0550
    132  CG        25.6090  -10.0490   15.5130 C.ar  219  TRP219      0.0003
    133  CD1       26.2530   -8.8950   15.8570 C.ar  219  TRP219      0.0946
    134  CD2       24.2110   -9.8240   15.6880 C.ar  219  TRP219      0.0152
    135  NE1       25.3240   -7.9530   16.2480 N.ar  219  TRP219     -0.2442
    136  CE2       24.0650   -8.4950   16.1530 C.ar  219  TRP219      0.0810
    137  CE3       23.0560  -10.5940   15.5070 C.ar  219  TRP219      0.0012
    138  CZ2       22.8200   -7.9340   16.4340 C.ar  219  TRP219      0.0191
    139  CZ3       21.8230  -10.0230   15.7930 C.ar  219  TRP219      0.0001
    140  CH2       21.7070   -8.7040   16.2520 C.ar  219  TRP219      0.0015
    141  N         23.3340   -3.4060   16.5200 N.3   298  CYS298     -0.1221
    142  CA        22.1600   -3.7550   15.7500 C.3   298  CYS298      0.1808
    143  C         22.0640   -2.9840   14.4380 C.2   298  CYS298      0.2601
    144  O         21.6280   -1.8240   14.4050 O.2   298  CYS298     -0.2717
    145  CB        20.8580   -3.4790   16.5220 C.3   298  CYS298      0.0970
    146  SG        20.5310   -4.6020   17.8920 S.3   298  CYS298     -0.0800
    147  N         22.4970   -3.6710   13.3910 N.am  299  ALA299     -0.1965
    148  CA        22.4190   -3.1680   12.0190 C.3   299  ALA299      0.1728
    149  C         22.1670   -4.3240   11.0720 C.2   299  ALA299      0.2616
    150  O         23.1040   -4.7210   10.3670 O.2   299  ALA299     -0.2715
    151  CB        23.7030   -2.4690   11.6190 C.3   299  ALA299      0.0334
    152  N         20.9700   -4.9130   11.0360 N.am  300  LEU300     -0.1977
    153  CA        20.9280   -6.1340   10.2170 C.3   300  LEU300      0.1596
    154  C         21.1130   -5.7990    8.7230 C.2   300  LEU300      0.2287
    155  O         20.2250   -5.1320    8.1830 O.2   300  LEU300     -0.2864
    156  CB        19.6620   -6.9480   10.4540 C.3   300  LEU300      0.0297
    157  CG        19.7930   -8.0440   11.5220 C.3   300  LEU300      0.0022
    158  CD1       20.4770   -7.5040   12.7700 C.3   300  LEU300      0.0001
    159  CD2       18.4310   -8.6330   11.8510 C.3   300  LEU300      0.0001
    160  N         18.7950   -6.3320    5.7960 N.3   303  CYS303     -0.1235
    161  CA        17.8080   -5.3550    5.3820 C.3   303  CYS303      0.1677
    162  C         18.3940   -4.1230    4.7110 C.2   303  CYS303      0.2270
    163  O         17.6800   -3.1360    4.5640 O.2   303  CYS303     -0.2867
    164  CB        16.9870   -4.8550    6.5930 C.3   303  CYS303      0.0956
    165  SG        16.0400   -6.2210    7.3430 S.3   303  CYS303     -0.0801
    166  N         15.4750    1.1920    5.2580 N.3   309  TYR309     -0.1228
    167  CA        16.6170    0.8860    6.1310 C.3   309  TYR309      0.1721
    168  C         17.1450    2.1650    6.7650 C.2   309  TYR309      0.2437
    169  O         17.4370    3.1490    6.0930 O.2   309  TYR309     -0.2733
    170  CB        17.7240    0.1850    5.3530 C.3   309  TYR309      0.0547
    171  CG        18.9460   -0.1690    6.1690 C.ar  309  TYR309     -0.0200
    172  CD1       18.9530   -1.2540    7.0260 C.ar  309  TYR309     -0.0009
    173  CD2       20.1160    0.5780    6.0790 C.ar  309  TYR309     -0.0009
    174  CE1       20.0670   -1.5940    7.7730 C.ar  309  TYR309      0.0417
    175  CE2       21.2260    0.2470    6.8270 C.ar  309  TYR309      0.0417
    176  CZ        21.2120   -0.8380    7.6770 C.ar  309  TYR309      0.1957
    177  OH        22.3120   -1.1810    8.4350 O.3   309  TYR309     -0.2866
    178  N         17.2160    2.2340    8.0900 N.am  310  PRO310     -0.2718
    179  CA        17.5020    3.5280    8.7370 C.3   310  PRO310      0.1535
    180  C         18.9490    3.9560    8.8390 C.2   310  PRO310      0.2598
    181  O         19.1810    5.1120    9.1960 O.2   310  PRO310     -0.2715
    182  CB        16.9510    3.2830   10.1520 C.3   310  PRO310      0.0310
    183  CG        17.2030    1.8210   10.3620 C.3   310  PRO310      0.0237
    184  CD        16.9350    1.1460    9.0340 C.3   310  PRO310      0.0939
    185  N         19.9400    3.1150    8.5560 N.am  311  PHE311     -0.1974
    186  CA        21.3030    3.5080    8.8850 C.3   311  PHE311      0.1639
    187  C         22.2490    3.7670    7.7140 C.2   311  PHE311      0.2290
    188  O         23.4570    3.6950    7.9680 O.2   311  PHE311     -0.2864
    189  CB        21.9480    2.4450    9.8020 C.3   311  PHE311      0.0560
    190  CG        21.0800    2.0530   11.0000 C.ar  311  PHE311     -0.0200
    191  CD1       20.3680    2.9810   11.7260 C.ar  311  PHE311     -0.0042
    192  CD2       21.0410    0.7170   11.3510 C.ar  311  PHE311     -0.0042
    193  CE1       19.5940    2.5860   12.8120 C.ar  311  PHE311     -0.0003
    194  CE2       20.2650    0.2930   12.4290 C.ar  311  PHE311     -0.0003
    195  CZ        19.5650    1.2580   13.1410 C.ar  311  PHE311     -0.0000
@<TRIPOS>BOND
     1   163   162    2
     2   162   161    1
     3   166   167    1
     4   170   167    1
     5   170   171    1
     6   161   160    1
     7   161   164    1
     8    87    86    1
     9    87    88    2
    10    86    85    1
    11    86    89    1
    12   173   171   ar
    13   173   175   ar
    14   169   168    2
    15   167   168    1
    16   171   172   ar
    17   164   165    1
    18    89    90    1
    19   168   178   am
    20   175   176   ar
    21    99    98    2
    22    91    90   ar
    23    91    93   ar
    24   172   174   ar
    25    84    82    1
    26    98    97    1
    27    90    92   ar
    28    93    95   ar
    29    82    79    1
    30    82    83    1
    31   176   174   ar
    32   176   177    1
    33   187   188    2
    34   187   186    1
    35    79    80    1
    36    79    78    1
    37    80    81    2
    38   178   179    1
    39   178   184    1
    40   155   154    2
    41    92    94   ar
    42    97   100    1
    43    97    96    1
    44   185   180   am
    45   185   186    1
    46    95    94   ar
    47   154   153    1
    48   179   180    1
    49   179   182    1
    50   100   101    1
    51   180   181    2
    52   186   189    1
    53    51    50    2
    54   184   183    1
    55   102   101   ar
    56   102   104   ar
    57   101   103   ar
    58   189   190    1
    59    50    49    1
    60   182   183    1
    61   104   106   ar
    62   153   156    1
    63   153   152    1
    64   150   149    2
    65    52    49    1
    66    52    53    1
    67   156   157    1
    68    49    48    1
    69   190   192   ar
    70   190   191   ar
    71   152   149   am
    72   149   148    1
    73   103   105   ar
    74   192   194   ar
    75   157   159    1
    76   157   158    1
    77   106   105   ar
    78   151   148    1
    79   191   193   ar
    80    67    66    2
    81    66    65    1
    82   148   147    1
    83    48    36   am
    84    68    65    1
    85    68    69    1
    86    42    40   ar
    87    42    43   ar
    88   194   195   ar
    89    74    76   ar
    90    74    71   ar
    91    37    36    2
    92   110   109    2
    93   193   195   ar
    94    45    43   ar
    95    45    47   ar
    96    76    77   ar
    97    40    39   ar
    98    65    64    1
    99    43    41   ar
   100    36    35    1
   101    69    71   ar
   102    69    70   ar
   103    71    73   ar
   104   147   143   am
   105    47    46   ar
   106   109   108    1
   107    77    75   ar
   108    39    41   ar
   109    39    38    1
   110    64    56   am
   111    41    44   ar
   112    70    72   ar
   113    73    75   ar
   114    73    72   ar
   115   144   143    2
   116   143   142    1
   117    35    38    1
   118    35    34    1
   119   111   108    1
   120   111   112    1
   121    46    44   ar
   122   131   132    1
   123   131   128    1
   124   108   107    1
   125    56    57    2
   126    56    55    1
   127   137   134   ar
   128   137   139   ar
   129   132   134   ar
   130   132   133   ar
   131   134   136   ar
   132   112   114   am
   133   112   113    2
   134   142   141    1
   135   142   145    1
   136   139   140   ar
   137   130   129    2
   138   133   135   ar
   139    54    55    1
   140   136   135   ar
   141   136   138   ar
   142   128   129    1
   143   128   127    1
   144    21    19    1
   145   140   138   ar
   146    55    58    1
   147    58    59    1
   148   145   146    1
   149    59    61   ar
   150    59    60   ar
   151    19    20    1
   152    19    16    1
   153   126   125    1
   154    61    63   ar
   155    60    62   ar
   156    16    15    1
   157    16    17    1
   158    63    62   ar
   159    18    17    2
   160   125   124   ar
   161   125   123   ar
   162    17    22   am
   163   124   122   ar
   164    12    14   ar
   165    12    10   ar
   166    14    13   ar
   167   123   121   ar
   168     9    10   ar
   169     9     7   ar
   170    10     8   ar
   171    22    23    1
   172   122   120   ar
   173    13    11   ar
   174    30    28   ar
   175    30    32   ar
   176   121   120   ar
   177    28    27   ar
   178     7     6   ar
   179     8    11   ar
   180     8     6   ar
   181    23    24    1
   182    23    26    1
   183   120   119    1
   184    33    32    1
   185    24    25    2
   186    32    31   ar
   187     6     5    1
   188    27    26    1
   189    27    29   ar
   190   119   116    1
   191    31    29   ar
   192     5     2    1
   193   118   117    2
   194   117   116    1
   195   115   116    1
   196     2     3    1
   197     2     1    1
   198     3     4    2
