@<TRIPOS>MOLECULE
tmp/2ikoA00.pdb
 129 122 0 0 0
SMALL
GASTEIGER

@<TRIPOS>ATOM
      1  N         -8.8680   17.4850  -37.3270 N.3    17  GLN17      -0.1245
      2  CA        -9.5740   17.6240  -36.0540 C.3    17  GLN17       0.1566
      3  C         -9.0260   16.6100  -35.0710 C.2    17  GLN17       0.2260
      4  O         -9.0240   15.4250  -35.3580 O.2    17  GLN17      -0.2867
      5  CB       -11.0770   17.4040  -36.2500 C.3    17  GLN17       0.0367
      6  CG       -11.6830   18.3500  -37.2590 C.3    17  GLN17       0.0905
      7  CD       -13.1370   18.0810  -37.5560 C.2    17  GLN17       0.2608
      8  OE1      -13.8610   17.5370  -36.7290 O.2    17  GLN17      -0.2717
      9  NE2      -13.5680   18.4450  -38.7600 N.am   17  GLN17      -0.0878
     10  N        -12.4240   19.4020  -28.8520 N.3    34  VAL34      -0.1245
     11  CA       -11.0770   19.8660  -29.1920 C.3    34  VAL34       0.1561
     12  C        -10.5020   20.6040  -27.9760 C.2    34  VAL34       0.2260
     13  O        -11.1800   21.4140  -27.3440 O.2    34  VAL34      -0.2867
     14  CB       -11.0770   20.7880  -30.4140 C.3    34  VAL34       0.0252
     15  CG1       -9.6530   21.3290  -30.6730 C.3    34  VAL34       0.0019
     16  CG2      -11.6190   20.0210  -31.6520 C.3    34  VAL34       0.0019
     17  N         -8.0760   23.4010  -26.9910 N.3    36  ASP36      -0.1239
     18  CA        -7.7950   24.5340  -27.8720 C.3    36  ASP36       0.1674
     19  C         -7.0470   25.6550  -27.1730 C.2    36  ASP36       0.2266
     20  O         -7.6310   26.4260  -26.4140 O.2    36  ASP36      -0.2867
     21  CB        -9.1330   25.0430  -28.4220 C.3    36  ASP36       0.1410
     22  CG        -9.0080   26.2470  -29.3330 C.2    36  ASP36       0.3668
     23  OD1      -10.0600   26.8820  -29.5760 O.co2  36  ASP36      -0.2456
     24  OD2       -7.8970   26.5730  -29.8090 O.co2  36  ASP36      -0.2456
     25  N         -5.9660   28.2760  -28.5090 N.3    38  GLY38      -0.1225
     26  CA        -6.3660   29.5260  -29.1200 C.3    38  GLY38       0.1811
     27  C         -7.6730   30.1200  -28.6210 C.2    38  GLY38       0.2280
     28  O         -8.1550   31.1020  -29.1960 O.2    38  GLY38      -0.2866
     29  N        -14.8160   32.2300  -33.4220 N.3    81  TYR81      -0.1227
     30  CA       -13.5780   31.6230  -33.8970 C.3    81  TYR81       0.1736
     31  C        -13.3280   32.1010  -35.3180 C.2    81  TYR81       0.2596
     32  O        -14.2080   32.6820  -35.9600 O.2    81  TYR81      -0.2718
     33  CB       -13.6530   30.0900  -33.8390 C.3    81  TYR81       0.0548
     34  CG       -14.0220   29.5590  -32.4690 C.ar   81  TYR81      -0.0200
     35  CD1      -15.3550   29.3420  -32.1230 C.ar   81  TYR81      -0.0009
     36  CD2      -13.0450   29.2870  -31.5220 C.ar   81  TYR81      -0.0009
     37  CE1      -15.7060   28.8980  -30.8930 C.ar   81  TYR81       0.0417
     38  CE2      -13.3870   28.7980  -30.2730 C.ar   81  TYR81       0.0417
     39  CZ       -14.7280   28.6080  -29.9700 C.ar   81  TYR81       0.1957
     40  OH       -15.1000   28.1520  -28.7340 O.3    81  TYR81      -0.2866
     41  N        -12.1220   31.8600  -35.8080 N.am   82  SER82      -0.1938
     42  CA       -11.7380   32.3300  -37.1340 C.3    82  SER82       0.2055
     43  C        -12.5930   31.7010  -38.2380 C.2    82  SER82       0.2644
     44  O        -12.7600   32.2970  -39.3010 O.2    82  SER82      -0.2714
     45  CB       -10.2560   32.0450  -37.3890 C.3    82  SER82       0.2130
     46  OG       -10.0290   30.6510  -37.3790 O.3    82  SER82      -0.2179
     47  N        -13.1240   30.5020  -37.9840 N.am   83  THR83      -0.1936
     48  CA       -13.8880   29.7510  -38.9880 C.3    83  THR83       0.2028
     49  C        -15.3870   29.6160  -38.6570 C.2    83  THR83       0.2642
     50  O        -16.1470   28.9900  -39.4040 O.2    83  THR83      -0.2714
     51  CB       -13.2590   28.3590  -39.2120 C.3    83  THR83       0.1808
     52  OG1      -13.2530   27.6260  -37.9910 O.3    83  THR83      -0.2208
     53  CG2      -11.8250   28.4880  -39.7100 C.3    83  THR83       0.0379
     54  N        -15.8240   30.2090  -37.5500 N.am   84  GLY84      -0.1954
     55  CA       -17.2430   30.1990  -37.2200 C.3    84  GLY84       0.1869
     56  C        -17.5300   30.6520  -35.8120 C.2    84  GLY84       0.2309
     57  O        -16.6130   30.8870  -35.0180 O.2    84  GLY84      -0.2863
     58  N        -19.7630   26.1130  -40.1380 N.3   116  PRO116     -0.2102
     59  CA       -18.9570   24.8970  -40.3270 C.3   116  PRO116      0.1504
     60  C        -19.3220   23.6460  -39.5130 C.2   116  PRO116      0.2575
     61  O        -18.7340   22.5930  -39.7530 O.2   116  PRO116     -0.2718
     62  CB       -17.5850   25.3580  -39.8590 C.3   116  PRO116      0.0282
     63  CG       -17.8920   26.2490  -38.7180 C.3   116  PRO116      0.0208
     64  CD       -19.1960   26.9470  -39.0610 C.3   116  PRO116      0.0893
     65  N        -20.2370   23.7390  -38.5560 N.am  117  PHE117     -0.1977
     66  CA       -20.3570   22.6630  -37.5560 C.3   117  PHE117      0.1639
     67  C        -20.9000   21.3250  -38.0210 C.2   117  PHE117      0.2290
     68  O        -20.6470   20.3190  -37.3760 O.2   117  PHE117     -0.2864
     69  CB       -21.0250   23.1790  -36.2820 C.3   117  PHE117      0.0560
     70  CG       -20.2010   24.2180  -35.6130 C.ar  117  PHE117     -0.0200
     71  CD1      -20.4880   25.5600  -35.7710 C.ar  117  PHE117     -0.0042
     72  CD2      -19.0610   23.8560  -34.9130 C.ar  117  PHE117     -0.0042
     73  CE1      -19.6800   26.5400  -35.1980 C.ar  117  PHE117     -0.0003
     74  CE2      -18.2490   24.8150  -34.3490 C.ar  117  PHE117     -0.0003
     75  CZ       -18.5600   26.1700  -34.4950 C.ar  117  PHE117     -0.0000
     76  N        -19.5530   19.9540  -40.3710 N.3   119  LEU119     -0.1231
     77  CA       -18.3310   19.3260  -40.8200 C.3   119  LEU119      0.1693
     78  C        -17.3950   18.9940  -39.6580 C.2   119  LEU119      0.2591
     79  O        -16.2820   18.5290  -39.8830 O.2   119  LEU119     -0.2718
     80  CB       -17.6460   20.1970  -41.8740 C.3   119  LEU119      0.0284
     81  CG       -18.4450   20.4090  -43.1700 C.3   119  LEU119      0.0019
     82  CD1      -17.7560   21.4270  -44.0300 C.3   119  LEU119      0.0001
     83  CD2      -18.6520   19.0960  -43.9380 C.3   119  LEU119      0.0001
     84  N        -17.8740   19.2080  -38.4290 N.am  120  ALA120     -0.1980
     85  CA       -17.1180   18.9640  -37.1990 C.3   120  ALA120      0.1597
     86  C        -17.4600   17.5900  -36.6420 C.2   120  ALA120      0.2287
     87  O        -18.6310   17.3070  -36.3700 O.2   120  ALA120     -0.2864
     88  CB       -17.4660   20.0120  -36.1570 C.3   120  ALA120      0.0319
     89  N        -16.0930   16.6280  -33.8250 N.3   122  PHE122     -0.1241
     90  CA       -16.1830   16.9790  -32.4170 C.3   122  PHE122      0.1605
     91  C        -17.5240   17.6570  -32.1060 C.2   122  PHE122      0.2264
     92  O        -18.1470   18.2410  -32.9960 O.2   122  PHE122     -0.2867
     93  CB       -15.0010   17.8510  -32.0020 C.3   122  PHE122      0.0534
     94  CG       -14.9130   19.1690  -32.7090 C.ar  122  PHE122     -0.0203
     95  CD1      -14.1610   19.3070  -33.8810 C.ar  122  PHE122     -0.0042
     96  CD2      -15.5270   20.3050  -32.1790 C.ar  122  PHE122     -0.0042
     97  CE1      -14.0650   20.5270  -34.5290 C.ar  122  PHE122     -0.0003
     98  CE2      -15.4150   21.5400  -32.8180 C.ar  122  PHE122     -0.0003
     99  CZ       -14.6990   21.6520  -33.9960 C.ar  122  PHE122     -0.0000
    100  N        -15.7460   22.3030  -27.4790 N.3   125  VAL125     -0.1245
    101  CA       -14.3960   22.8260  -27.3300 C.3   125  VAL125      0.1561
    102  C        -14.0730   23.0420  -25.8600 C.2   125  VAL125      0.2260
    103  O        -14.9240   23.4750  -25.0930 O.2   125  VAL125     -0.2867
    104  CB       -14.2260   24.1570  -28.1080 C.3   125  VAL125      0.0252
    105  CG1      -12.8000   24.7460  -27.9250 C.3   125  VAL125      0.0019
    106  CG2      -14.5650   23.9380  -29.6080 C.3   125  VAL125      0.0019
    107  N         -1.3990   27.3580  -31.5550 N.3   224  ASP224     -0.1239
    108  CA        -2.8390   27.1440  -31.5130 C.3   224  ASP224      0.1674
    109  C         -3.2160   25.6950  -31.7720 C.2   224  ASP224      0.2266
    110  O         -3.3540   25.2720  -32.9090 O.2   224  ASP224     -0.2867
    111  CB        -3.5200   28.0460  -32.5520 C.3   224  ASP224      0.1410
    112  CG        -5.0240   28.0850  -32.3990 C.2   224  ASP224      0.3668
    113  OD1       -5.6530   28.8980  -33.1040 O.co2 224  ASP224     -0.2456
    114  OD2       -5.5860   27.3140  -31.5860 O.co2 224  ASP224     -0.2456
    115  N         -6.0050   24.4160  -31.4680 N.3   226  GLY226     -0.1210
    116  CA        -7.3370   24.3490  -32.0740 C.3   226  GLY226      0.1956
    117  C         -7.3840   24.6310  -33.5640 C.2   226  GLY226      0.2612
    118  O         -8.4410   24.4890  -34.1690 O.2   226  GLY226     -0.2717
    119  N         -6.2410   25.0100  -34.1370 N.am  227  ALA227     -0.1965
    120  CA        -6.0910   25.3230  -35.5660 C.3   227  ALA227      0.1728
    121  C         -5.5440   24.1040  -36.3290 C.2   227  ALA227      0.2616
    122  O         -4.5410   23.5240  -35.9300 O.2   227  ALA227     -0.2715
    123  CB        -5.1290   26.5060  -35.7330 C.3   227  ALA227      0.0334
    124  N         -6.2000   23.7250  -37.4190 N.am  228  SER228     -0.1950
    125  CA        -5.7690   22.5920  -38.2290 C.3   228  SER228      0.1924
    126  C         -4.4210   22.8680  -38.9080 C.2   228  SER228      0.2314
    127  O         -3.6190   21.9790  -39.0990 O.2   228  SER228     -0.2863
    128  CB        -6.8230   22.2800  -39.3100 C.3   228  SER228      0.2116
    129  OG        -8.0850   22.0030  -38.7240 O.3   228  SER228     -0.2180
@<TRIPOS>BOND
     1    82    81    1
     2    83    81    1
     3    81    80    1
     4    80    77    1
     5    77    76    1
     6    77    78    1
     7    59    58    1
     8    59    62    1
     9    59    60    1
    10    58    64    1
    11    79    78    2
    12    62    63    1
    13    61    60    2
    14    53    51    1
    15    78    84   am
    16    60    65   am
    17    50    49    2
    18   128   129    1
    19   128   125    1
    20    44    43    2
    21    51    48    1
    22    51    52    1
    23   127   126    2
    24    64    63    1
    25    48    49    1
    26    48    47    1
    27   126   125    1
    28     9     7   am
    29    49    54   am
    30    65    66    1
    31    84    85    1
    32    43    47   am
    33    43    42    1
    34   125   124    1
    35    67    66    1
    36    67    68    2
    37    66    69    1
    38     7     6    1
    39     7     8    2
    40    54    55    1
    41   124   121   am
    42    45    46    1
    43    45    42    1
    44     1     2    1
    45     6     5    1
    46    55    56    1
    47    85    86    1
    48    85    88    1
    49    42    41    1
    50    86    87    2
    51   121   122    2
    52   121   120    1
    53    69    70    1
    54     5     2    1
    55     2     3    1
    56    32    31    2
    57    56    57    2
    58    41    31   am
    59    71    70   ar
    60    71    73   ar
    61   123   120    1
    62    70    72   ar
    63   120   119    1
    64     4     3    2
    65    31    30    1
    66    73    75   ar
    67    72    74   ar
    68    97    99   ar
    69    97    95   ar
    70    75    74   ar
    71   118   117    2
    72   119   117   am
    73    99    98   ar
    74    30    33    1
    75    30    29    1
    76    95    94   ar
    77    33    34    1
    78    89    90    1
    79   117   116    1
    80   113   112   ar
    81    92    91    2
    82   110   109    2
    83    98    96   ar
    84    94    96   ar
    85    94    93    1
    86   111   112    1
    87   111   108    1
    88    34    35   ar
    89    34    36   ar
    90    90    91    1
    91    90    93    1
    92   112   114   ar
    93    35    37   ar
    94   116   115    1
    95   109   108    1
    96    16    14    1
    97   107   108    1
    98    36    38   ar
    99    37    39   ar
   100    15    14    1
   101    14    11    1
   102    38    39   ar
   103    39    40    1
   104    24    22   ar
   105   106   104    1
   106    23    22   ar
   107    22    21    1
   108    28    27    2
   109    11    10    1
   110    11    12    1
   111    26    27    1
   112    26    25    1
   113    21    18    1
   114   104   105    1
   115   104   101    1
   116    12    13    2
   117    18    19    1
   118    18    17    1
   119   100   101    1
   120   101   102    1
   121    19    20    2
   122   102   103    2
