@<TRIPOS>MOLECULE
tmp/2ikuB00.pdb
 180 175 0 0 0
SMALL
GASTEIGER

@<TRIPOS>ATOM
      1  N          9.0770    2.7860  -53.5910 N.3    15  THR15      -0.1203
      2  CA        10.4210    2.5200  -54.1690 C.3    15  THR15       0.1994
      3  C         11.5610    3.3540  -53.5940 C.2    15  THR15       0.2618
      4  O         12.7090    3.1110  -53.9250 O.2    15  THR15      -0.2717
      5  CB        10.4530    2.7350  -55.6770 C.3    15  THR15       0.1784
      6  OG1       10.1710    4.1150  -55.9700 O.3    15  THR15      -0.2211
      7  CG2        9.4510    1.8400  -56.3460 C.3    15  THR15       0.0376
      8  N         11.2470    4.3310  -52.7500 N.am   16  GLN16      -0.1965
      9  CA        12.2540    5.1840  -52.1320 C.3    16  GLN16       0.1733
     10  C         11.7690    5.5290  -50.7390 C.2    16  GLN16       0.2616
     11  O         10.6440    5.9930  -50.5840 O.2    16  GLN16      -0.2715
     12  CB        12.4590    6.4730  -52.9270 C.3    16  GLN16       0.0408
     13  CG        12.8810    6.2680  -54.3870 C.3    16  GLN16       0.0908
     14  CD        13.2470    7.5810  -55.0990 C.2    16  GLN16       0.2608
     15  OE1       13.6990    8.5450  -54.4740 O.2    16  GLN16      -0.2717
     16  NE2       13.0570    7.6110  -56.4180 N.am   16  GLN16      -0.0878
     17  N         12.6100    5.2710  -49.7410 N.am   17  TYR17      -0.1974
     18  CA        12.3160    5.5790  -48.3510 C.3    17  TYR17       0.1639
     19  C         13.4320    6.4570  -47.8110 C.2    17  TYR17       0.2290
     20  O         14.6010    6.0890  -47.9350 O.2    17  TYR17      -0.2864
     21  CB        12.2230    4.2930  -47.5240 C.3    17  TYR17       0.0560
     22  CG        10.9990    3.4760  -47.8320 C.ar   17  TYR17      -0.0198
     23  CD1       10.9730    2.6260  -48.9190 C.ar   17  TYR17      -0.0009
     24  CD2        9.8570    3.5720  -47.0490 C.ar   17  TYR17      -0.0009
     25  CE1        9.8540    1.8850  -49.2210 C.ar   17  TYR17       0.0417
     26  CE2        8.7160    2.8260  -47.3470 C.ar   17  TYR17       0.0417
     27  CZ         8.7280    1.9810  -48.4360 C.ar   17  TYR17       0.1957
     28  OH         7.6180    1.2350  -48.7480 O.3    17  TYR17      -0.2866
     29  N         18.4570    8.5110  -47.5120 N.3    33  VAL33      -0.1245
     30  CA        18.1210    7.1140  -47.4090 C.3    33  VAL33       0.1561
     31  C         19.0800    6.4350  -46.4390 C.2    33  VAL33       0.2260
     32  O         20.2990    6.6320  -46.4990 O.2    33  VAL33      -0.2867
     33  CB        18.2050    6.4020  -48.7720 C.3    33  VAL33       0.0252
     34  CG1       18.1070    4.8880  -48.5910 C.3    33  VAL33       0.0019
     35  CG2       17.1010    6.9210  -49.6980 C.3    33  VAL33       0.0019
     36  N         20.7760    3.2840  -45.4470 N.3    35  ASP35      -0.1239
     37  CA        21.1850    2.2600  -46.3850 C.3    35  ASP35       0.1674
     38  C         22.1340    1.2210  -45.7490 C.2    35  ASP35       0.2266
     39  O         23.3440    1.4670  -45.5900 O.2    35  ASP35      -0.2867
     40  CB        21.8630    2.9730  -47.5540 C.3    35  ASP35       0.1410
     41  CG        22.3680    2.0370  -48.6000 C.2    35  ASP35       0.3668
     42  OD1       23.1440    2.4990  -49.4800 O.co2  35  ASP35      -0.2456
     43  OD2       22.0090    0.8440  -48.5470 O.co2  35  ASP35      -0.2456
     44  N         23.0460   -1.3130  -47.1500 N.3    37  GLY37      -0.1225
     45  CA        23.8820   -1.8210  -48.2250 C.3    37  GLY37       0.1811
     46  C         25.0570   -0.9440  -48.6200 C.2    37  GLY37       0.2280
     47  O         25.6750   -1.1860  -49.6480 O.2    37  GLY37      -0.2866
     48  N         27.3050    2.6620  -56.4270 N.3    80  TYR80      -0.1227
     49  CA        26.1060    1.8870  -56.1640 C.3    80  TYR80       0.1736
     50  C         25.7620    1.0730  -57.4070 C.2    80  TYR80       0.2596
     51  O         26.2690    1.3230  -58.5030 O.2    80  TYR80      -0.2718
     52  CB        24.9390    2.8080  -55.7980 C.3    80  TYR80       0.0548
     53  CG        25.2280    3.6840  -54.5970 C.ar   80  TYR80      -0.0200
     54  CD1       25.5390    5.0470  -54.7400 C.ar   80  TYR80      -0.0009
     55  CD2       25.2290    3.1460  -53.3200 C.ar   80  TYR80      -0.0009
     56  CE1       25.8280    5.8400  -53.6200 C.ar   80  TYR80       0.0417
     57  CE2       25.5170    3.9300  -52.2060 C.ar   80  TYR80       0.0417
     58  CZ        25.8100    5.2650  -52.3560 C.ar   80  TYR80       0.1957
     59  OH        26.0880    5.9920  -51.2270 O.3    80  TYR80      -0.2866
     60  N         24.8950    0.0890  -57.2240 N.am   81  SER81      -0.1938
     61  CA        24.4290   -0.7530  -58.3100 C.3    81  SER81       0.2055
     62  C         23.7130    0.0650  -59.3870 C.2    81  SER81       0.2643
     63  O         23.6780   -0.3310  -60.5510 O.2    81  SER81      -0.2714
     64  CB        23.4750   -1.7940  -57.7560 C.3    81  SER81       0.2130
     65  OG        22.3450   -1.1620  -57.1880 O.3    81  SER81      -0.2179
     66  N         23.1290    1.1930  -58.9900 N.am   82  THR82      -0.1950
     67  CA        22.4890    2.0930  -59.9240 C.3    82  THR82       0.1897
     68  C         23.0490    3.4930  -59.7170 C.2    82  THR82       0.2313
     69  O         22.4830    4.2620  -58.9530 O.2    82  THR82      -0.2863
     70  CB        20.9500    2.1250  -59.7110 C.3    82  THR82       0.1794
     71  OG1       20.6560    2.4540  -58.3470 O.3    82  THR82      -0.2208
     72  CG2       20.3140    0.7890  -60.0560 C.3    82  THR82       0.0378
     73  N         21.3040    8.0690  -62.2140 N.3   115  PRO115     -0.2102
     74  CA        19.8770    8.1070  -61.9030 C.3   115  PRO115      0.1504
     75  C         19.4230    9.2170  -60.9430 C.2   115  PRO115      0.2575
     76  O         18.2430    9.2800  -60.5940 O.2   115  PRO115     -0.2718
     77  CB        19.6910    6.7850  -61.1850 C.3   115  PRO115      0.0282
     78  CG        20.9480    6.6630  -60.3740 C.3   115  PRO115      0.0208
     79  CD        22.0380    7.3270  -61.1720 C.3   115  PRO115      0.0893
     80  N         20.3280   10.0790  -60.5000 N.am  116  PHE116     -0.1977
     81  CA        20.0080   10.9690  -59.3830 C.3   116  PHE116      0.1639
     82  C         19.0000   12.0840  -59.6670 C.2   116  PHE116      0.2290
     83  O         18.5730   12.7440  -58.7350 O.2   116  PHE116     -0.2864
     84  CB        21.2870   11.5120  -58.7370 C.3   116  PHE116      0.0560
     85  CG        22.1410   10.4330  -58.1180 C.ar  116  PHE116     -0.0200
     86  CD1       23.2140    9.8880  -58.8140 C.ar  116  PHE116     -0.0042
     87  CD2       21.8420    9.9330  -56.8520 C.ar  116  PHE116     -0.0042
     88  CE1       23.9910    8.8780  -58.2550 C.ar  116  PHE116     -0.0003
     89  CE2       22.6190    8.9290  -56.2870 C.ar  116  PHE116     -0.0003
     90  CZ        23.7010    8.4000  -56.9990 C.ar  116  PHE116     -0.0000
     91  N         16.1420   11.1290  -60.5820 N.3   118  LEU118     -0.1231
     92  CA        15.0260   10.3370  -60.0660 C.3   118  LEU118      0.1693
     93  C         15.0000   10.2530  -58.5360 C.2   118  LEU118      0.2591
     94  O         14.0420    9.7390  -57.9700 O.2   118  LEU118     -0.2718
     95  CB        15.0860    8.9100  -60.6300 C.3   118  LEU118      0.0284
     96  CG        15.1580    8.7630  -62.1580 C.3   118  LEU118      0.0019
     97  CD1       15.0310    7.3060  -62.5860 C.3   118  LEU118      0.0001
     98  CD2       14.0840    9.6020  -62.8220 C.3   118  LEU118      0.0001
     99  N         16.0580   10.7430  -57.8870 N.am  119  ALA119     -0.1980
    100  CA        16.2250   10.6280  -56.4430 C.3   119  ALA119      0.1597
    101  C         15.4000   11.6800  -55.7370 C.2   119  ALA119      0.2287
    102  O         15.6480   12.8650  -55.9100 O.2   119  ALA119     -0.2864
    103  CB        17.6930   10.7850  -56.0650 C.3   119  ALA119      0.0319
    104  N         15.4140   11.9030  -52.5370 N.3   121  PHE121     -0.1241
    105  CA        16.2670   12.2060  -51.4050 C.3   121  PHE121      0.1605
    106  C         17.4730   12.9720  -51.9030 C.2   121  PHE121      0.2264
    107  O         17.7880   12.9260  -53.0930 O.2   121  PHE121     -0.2867
    108  CB        16.7220   10.9210  -50.7130 C.3   121  PHE121      0.0534
    109  CG        17.2950    9.8920  -51.6540 C.ar  121  PHE121     -0.0203
    110  CD1       16.4670    8.9690  -52.2770 C.ar  121  PHE121     -0.0042
    111  CD2       18.6670    9.8430  -51.9070 C.ar  121  PHE121     -0.0042
    112  CE1       16.9900    8.0130  -53.1340 C.ar  121  PHE121     -0.0003
    113  CE2       19.2000    8.8980  -52.7760 C.ar  121  PHE121     -0.0003
    114  CZ        18.3580    7.9800  -53.3870 C.ar  121  PHE121     -0.0000
    115  N         22.6740   10.0610  -48.6650 N.3   124  VAL124     -0.1245
    116  CA        22.6650    8.7000  -48.1730 C.3   124  VAL124      0.1561
    117  C         23.3750    8.5890  -46.8250 C.2   124  VAL124      0.2260
    118  O         24.4450    9.1640  -46.6390 O.2   124  VAL124     -0.2867
    119  CB        23.3450    7.7750  -49.1790 C.3   124  VAL124      0.0252
    120  CG1       23.4900    6.3680  -48.5900 C.3   124  VAL124      0.0019
    121  CG2       22.5360    7.7380  -50.4630 C.3   124  VAL124      0.0019
    122  N          9.3530   -0.1910  -42.9600 N.3   159  TYR159     -0.1241
    123  CA         8.8630    0.4230  -44.1920 C.3   159  TYR159      0.1605
    124  C          7.3540    0.0980  -44.3210 C.2   159  TYR159      0.2264
    125  O          6.9310   -1.0360  -44.1050 O.2   159  TYR159     -0.2867
    126  CB         9.6540   -0.0730  -45.4220 C.3   159  TYR159      0.0534
    127  CG        11.0840    0.4450  -45.6340 C.ar  159  TYR159     -0.0201
    128  CD1       11.9370   -0.1880  -46.5440 C.ar  159  TYR159     -0.0009
    129  CD2       11.5900    1.5500  -44.9540 C.ar  159  TYR159     -0.0009
    130  CE1       13.2350    0.2580  -46.7730 C.ar  159  TYR159      0.0417
    131  CE2       12.9100    1.9970  -45.1690 C.ar  159  TYR159      0.0417
    132  CZ        13.7240    1.3580  -46.0830 C.ar  159  TYR159      0.1957
    133  OH        15.0240    1.8080  -46.3050 O.3   159  TYR159     -0.2866
    134  N         18.9970   -5.3580  -47.7140 N.3   223  ASP223     -0.1225
    135  CA        19.3850   -4.0400  -48.1720 C.3   223  ASP223      0.1805
    136  C         18.2690   -3.0290  -48.0670 C.2   223  ASP223      0.2598
    137  O         17.4040   -2.9450  -48.9270 O.2   223  ASP223     -0.2718
    138  CB        19.8230   -4.1420  -49.6210 C.3   223  ASP223      0.1424
    139  CG        20.5340   -2.8970  -50.1240 C.2   223  ASP223      0.3668
    140  OD1       21.1010   -3.0010  -51.2330 O.co2 223  ASP223     -0.2456
    141  OD2       20.5360   -1.8440  -49.4470 O.co2 223  ASP223     -0.2456
    142  N         18.3410   -2.1990  -47.0360 N.am  224  THR224     -0.1939
    143  CA        17.3280   -1.2080  -46.7990 C.3   224  THR224      0.2028
    144  C         17.4190   -0.0850  -47.8030 C.2   224  THR224      0.2643
    145  O         16.5050    0.7350  -47.8970 O.2   224  THR224     -0.2714
    146  CB        17.4480   -0.6090  -45.3800 C.3   224  THR224      0.1808
    147  OG1       18.7420   -0.0050  -45.2370 O.3   224  THR224     -0.2208
    148  CG2       17.2240   -1.6790  -44.2900 C.3   224  THR224      0.0379
    149  N         18.5140   -0.0310  -48.5490 N.am  225  GLY225     -0.1939
    150  CA        18.6910    0.9940  -49.5800 C.3   225  GLY225      0.2014
    151  C         18.3080    0.5700  -50.9840 C.2   225  GLY225      0.2639
    152  O         18.5740    1.3140  -51.9330 O.2   225  GLY225     -0.2714
    153  N         17.6880   -0.6060  -51.1260 N.am  226  ALA226     -0.1963
    154  CA        17.2230   -1.1230  -52.4280 C.3   226  ALA226      0.1728
    155  C         15.7010   -1.2160  -52.4930 C.2   226  ALA226      0.2617
    156  O         15.0590   -1.6670  -51.5490 O.2   226  ALA226     -0.2715
    157  CB        17.8160   -2.4970  -52.6780 C.3   226  ALA226      0.0334
    158  N         15.1210   -0.8240  -53.6210 N.am  227  SER227     -0.1936
    159  CA        13.6620   -0.7870  -53.7490 C.3   227  SER227      0.2055
    160  C         13.0020   -2.1770  -53.6730 C.2   227  SER227      0.2643
    161  O         11.8990   -2.3090  -53.1690 O.2   227  SER227     -0.2714
    162  CB        13.2630   -0.0940  -55.0610 C.3   227  SER227      0.2130
    163  OG        13.8700    1.1890  -55.2060 O.3   227  SER227     -0.2179
    164  N         13.6900   -3.2100  -54.1480 N.am  228  TYR228     -0.1973
    165  CA        13.0500   -4.4800  -54.4580 C.3   228  TYR228      0.1639
    166  C         13.7290   -5.6930  -53.8070 C.2   228  TYR228      0.2290
    167  O         14.7800   -5.5770  -53.1580 O.2   228  TYR228     -0.2864
    168  CB        13.0600   -4.6830  -55.9680 C.3   228  TYR228      0.0560
    169  CG        12.5440   -3.5160  -56.7840 C.ar  228  TYR228     -0.0198
    170  CD1       13.3610   -2.8740  -57.7100 C.ar  228  TYR228     -0.0009
    171  CD2       11.2460   -3.0620  -56.6320 C.ar  228  TYR228     -0.0009
    172  CE1       12.8920   -1.8100  -58.4750 C.ar  228  TYR228      0.0417
    173  CE2       10.7630   -1.9760  -57.3780 C.ar  228  TYR228      0.0417
    174  CZ        11.5890   -1.3650  -58.2950 C.ar  228  TYR228      0.1957
    175  OH        11.1170   -0.3050  -59.0280 O.3   228  TYR228     -0.2866
    176  N         13.2160   -3.1400  -49.9010 N.3   314  ALA314     -0.1245
    177  CA        11.9220   -2.6180  -49.4530 C.3   314  ALA314      0.1562
    178  C         10.7870   -3.6220  -49.5110 C.2   314  ALA314      0.2260
    179  O          9.9530   -3.6850  -48.5910 O.2   314  ALA314     -0.2867
    180  CB        11.5500   -1.4040  -50.3060 C.3   314  ALA314      0.0290
@<TRIPOS>BOND
     1    98    96    1
     2    97    96    1
     3    73    74    1
     4    73    79    1
     5    96    95    1
     6    74    77    1
     7    74    75    1
     8    77    78    1
     9    79    78    1
    10    75    76    2
    11    75    80   am
    12    95    92    1
    13    91    92    1
    14    63    62    2
    15    80    81    1
    16    92    93    1
    17    72    70    1
    18    67    68    1
    19    67    70    1
    20    67    66    1
    21    68    69    2
    22    70    71    1
    23    82    81    1
    24    82    83    2
    25    62    66   am
    26    62    61    1
    27    81    84    1
    28   175   174    1
    29    86    88   ar
    30    86    85   ar
    31    84    85    1
    32    93    94    2
    33    93    99   am
    34    51    50    2
    35   172   174   ar
    36   172   170   ar
    37    61    64    1
    38    61    60    1
    39   174   173   ar
    40    88    90   ar
    41    85    87   ar
    42    99   100    1
    43    64    65    1
    44   170   169   ar
    45    50    60   am
    46    50    49    1
    47   173   171   ar
    48    90    89   ar
    49    87    89   ar
    50   169   171   ar
    51   169   168    1
    52   100   103    1
    53   100   101    1
    54    48    49    1
    55    16    14   am
    56     7     5    1
    57    49    52    1
    58     6     5    1
    59   168   165    1
    60   102   101    2
    61    52    53    1
    62     5     2    1
    63   163   162    1
    64    14    15    2
    65    14    13    1
    66   162   159    1
    67    54    53   ar
    68    54    56   ar
    69    53    55   ar
    70   165   164    1
    71   165   166    1
    72    13    12    1
    73     2     3    1
    74     2     1    1
    75   164   160   am
    76     4     3    2
    77   166   167    2
    78   159   160    1
    79   159   158    1
    80   160   161    2
    81   158   155   am
    82    56    58   ar
    83     3     8   am
    84   114   112   ar
    85   114   113   ar
    86    55    57   ar
    87   112   110   ar
    88   107   106    2
    89    12     9    1
    90   113   111   ar
    91     8     9    1
    92   157   154    1
    93   104   105    1
    94   155   154    1
    95   155   156    2
    96   154   153    1
    97    58    57   ar
    98    58    59    1
    99   110   109   ar
   100     9    10    1
   101   152   151    2
   102   111   109   ar
   103   106   105    1
   104   109   108    1
   105   105   108    1
   106   140   139   ar
   107   153   151   am
   108   151   150    1
   109    10    11    2
   110    10    17   am
   111   121   119    1
   112   180   177    1
   113   139   138    1
   114   139   141   ar
   115   176   177    1
   116    17    18    1
   117    35    33    1
   118    47    46    2
   119   138   135    1
   120   150   149    1
   121   178   177    1
   122   178   179    2
   123    42    41   ar
   124    25    23   ar
   125    25    27   ar
   126   119   120    1
   127   119   116    1
   128   137   136    2
   129    23    22   ar
   130    33    34    1
   131    33    30    1
   132    28    27    1
   133   115   116    1
   134    46    45    1
   135    41    43   ar
   136    41    40    1
   137   149   144   am
   138    27    26   ar
   139    18    19    1
   140    18    21    1
   141    45    44    1
   142   116   117    1
   143   135   136    1
   144   135   134    1
   145   136   142   am
   146    20    19    2
   147   145   144    2
   148    22    21    1
   149    22    24   ar
   150   144   143    1
   151    40    37    1
   152    29    30    1
   153    30    31    1
   154    26    24   ar
   155   142   143    1
   156   117   118    2
   157   143   146    1
   158   130   128   ar
   159   130   132   ar
   160   128   127   ar
   161    32    31    2
   162    37    38    1
   163    37    36    1
   164   133   132    1
   165   132   131   ar
   166    38    39    2
   167   127   126    1
   168   127   129   ar
   169   126   123    1
   170   146   147    1
   171   146   148    1
   172   131   129   ar
   173   124   123    1
   174   124   125    2
   175   123   122    1
