@<TRIPOS>MOLECULE
tmp/2il1A00.pdb
 93 89 0 0 0
SMALL
GASTEIGER

@<TRIPOS>ATOM
      1  N         -2.8550   14.7990    5.1880 N.3    14  ARG14      -0.1231
      2  CA        -4.2060   15.0610    5.6110 C.3    14  ARG14       0.1694
      3  C         -4.5070   14.2930    6.8990 C.2    14  ARG14       0.2593
      4  O         -4.0820   13.1390    7.0650 O.2    14  ARG14      -0.2718
      5  CB        -5.1850   14.6660    4.4930 C.3    14  ARG14       0.0321
      6  CG        -5.3840   13.1730    4.3400 C.3    14  ARG14       0.0489
      7  CD        -6.8290   12.7280    4.6800 C.3    14  ARG14       0.2205
      8  NE        -7.7060   13.2550    3.6640 N.pl3  14  ARG14      -0.0865
      9  CZ        -8.2290   12.5830    2.6430 C.cat  14  ARG14       0.5346
     10  NH1       -8.9940   13.2370    1.8060 N.pl3  14  ARG14       0.1354
     11  NH2       -8.0230   11.2760    2.4570 N.pl3  14  ARG14       0.1354
     12  N         -5.2420   14.9360    7.7980 N.am   15  GLY15      -0.1942
     13  CA        -5.8080   14.2580    8.9760 C.3    15  GLY15       0.2014
     14  C         -4.8690   14.2510   10.1860 C.2    15  GLY15       0.2639
     15  O         -5.1740   13.6570   11.2230 O.2    15  GLY15      -0.2714
     16  N         -3.7390   14.9290   10.0660 N.am   16  VAL16      -0.1963
     17  CA        -2.7630   14.9640   11.1740 C.3    16  VAL16       0.1727
     18  C         -3.1150   15.9890   12.2640 C.2    16  VAL16       0.2617
     19  O         -2.6270   15.8630   13.3940 O.2    16  VAL16      -0.2715
     20  CB        -1.3060   15.1300   10.6820 C.3    16  VAL16       0.0290
     21  CG1       -0.9540   13.9680    9.7550 C.3    16  VAL16       0.0023
     22  CG2       -1.0970   16.4700    9.9600 C.3    16  VAL16       0.0023
     23  N         -3.9540   16.9860   11.9120 N.am   17  GLY17      -0.1940
     24  CA        -4.4580   18.0090   12.8680 C.3    17  GLY17       0.2014
     25  C         -3.9050   19.4050   12.6500 C.2    17  GLY17       0.2639
     26  O         -3.8570   20.2150   13.5880 O.2    17  GLY17      -0.2714
     27  N         -3.4760   19.6910   11.4220 N.am   18  LYS18      -0.1963
     28  CA        -2.9230   21.0130   11.0500 C.3    18  LYS18       0.1728
     29  C         -3.9470   22.1400   11.3000 C.2    18  LYS18       0.2617
     30  O         -3.6200   23.1990   11.8600 O.2    18  LYS18      -0.2715
     31  CB        -2.5240   21.0410    9.5620 C.3    18  LYS18       0.0311
     32  CG        -1.4420   20.0890    9.1170 C.3    18  LYS18       0.0038
     33  CD        -1.1080   20.2400    7.5990 C.3    18  LYS18       0.0206
     34  CE        -2.3010   20.1500    6.6960 C.3    18  LYS18       0.1093
     35  NZ        -2.7400   18.7520    6.5960 N.3    18  LYS18      -0.1314
     36  N         -5.1720   21.9290   10.8520 N.am   19  THR19      -0.1937
     37  CA        -6.2420   22.9160   11.0640 C.3    19  THR19       0.2028
     38  C         -6.6020   22.9810   12.5310 C.2    19  THR19       0.2642
     39  O         -6.7660   24.0900   13.0870 O.2    19  THR19      -0.2714
     40  CB        -7.4850   22.6480   10.1530 C.3    19  THR19       0.1808
     41  OG1       -7.0840   22.8490    8.7870 O.3    19  THR19      -0.2208
     42  CG2       -8.6360   23.6230   10.4560 C.3    19  THR19       0.0379
     43  N         -6.6700   21.8220   13.1910 N.am   20  SER20      -0.1949
     44  CA        -7.0280   21.8150   14.6200 C.3    20  SER20       0.1924
     45  C         -5.9890   22.5550   15.4610 C.2    20  SER20       0.2314
     46  O         -6.3360   23.2520   16.4230 O.2    20  SER20      -0.2863
     47  CB        -7.2120   20.3970   15.1370 C.3    20  SER20       0.2116
     48  OG        -8.1800   19.7110   14.3810 O.3    20  SER20      -0.2180
     49  N          1.6000   15.3000   16.4340 N.3   110  ASN110     -0.1225
     50  CA         0.3280   15.7040   17.0400 C.3   110  ASN110      0.1785
     51  C         -0.4850   14.4660   17.4860 C.2   110  ASN110      0.2597
     52  O         -0.1680   13.3310   17.0810 O.2   110  ASN110     -0.2718
     53  CB        -0.4910   16.5940   16.0770 C.3   110  ASN110      0.1169
     54  CG        -1.7490   17.1980   16.7380 C.2   110  ASN110      0.2627
     55  OD1       -1.7270   17.5600   17.9050 O.2   110  ASN110     -0.2716
     56  ND2       -2.8500   17.2640   15.9880 N.am  110  ASN110     -0.0877
     57  N         -1.5220   14.7120   18.3030 N.am  111  LYS111     -0.1980
     58  CA        -2.4220   13.6800   18.9110 C.3   111  LYS111      0.1596
     59  C         -1.7800   12.9050   20.0770 C.2   111  LYS111      0.2287
     60  O         -2.0530   11.7320   20.2800 O.2   111  LYS111     -0.2864
     61  CB        -3.0610   12.7430   17.8640 C.3   111  LYS111      0.0298
     62  CG        -3.6340   13.4780   16.6700 C.3   111  LYS111      0.0038
     63  CD        -4.7410   12.7100   15.9390 C.3   111  LYS111      0.0206
     64  CE        -4.9910   13.4090   14.6190 C.3   111  LYS111      0.1093
     65  NZ        -5.7570   12.6100   13.6170 N.3   111  LYS111     -0.1314
     66  N         -2.5770   13.1110   23.0680 N.3   113  ASP113     -0.1225
     67  CA        -3.6740   12.6170   23.9270 C.3   113  ASP113      0.1805
     68  C         -4.0770   11.1640   23.5910 C.2   113  ASP113      0.2598
     69  O         -4.6840   10.4520   24.4350 O.2   113  ASP113     -0.2718
     70  CB        -4.8970   13.5270   23.8100 C.3   113  ASP113      0.1424
     71  CG        -5.4170   13.6310   22.3780 C.2   113  ASP113      0.3668
     72  OD1       -4.6910   14.1770   21.5250 O.co2 113  ASP113     -0.2456
     73  OD2       -6.5490   13.1580   22.1040 O.co2 113  ASP113     -0.2456
     74  N         -3.7600   10.7420   22.3590 N.am  114  CYS114     -0.1970
     75  CA        -4.0710    9.3860   21.8730 C.3   114  CYS114      0.1712
     76  C         -2.8850    8.4480   22.0420 C.2   114  CYS114      0.2296
     77  O         -2.6500    7.5680   21.2110 O.2   114  CYS114     -0.2864
     78  CB        -4.4700    9.4150   20.3950 C.3   114  CYS114      0.0983
     79  SG        -5.8710   10.4590   19.9920 S.3   114  CYS114     -0.0798
     80  N         -3.6010   19.0430   19.9880 N.3   142  ALA142     -0.1231
     81  CA        -4.5820   20.1050   19.7230 C.3   142  ALA142      0.1694
     82  C         -5.8090   19.9220   20.5950 C.2   142  ALA142      0.2591
     83  O         -6.3470   20.8880   21.1580 O.2   142  ALA142     -0.2718
     84  CB        -4.9730   20.1090   18.2420 C.3   142  ALA142      0.0304
     85  N         -6.2350   18.6710   20.7250 N.am  143  LYS143     -0.1980
     86  CA        -7.4110   18.3230   21.5320 C.3   143  LYS143      0.1596
     87  C         -7.2530   18.7010   23.0160 C.2   143  LYS143      0.2287
     88  O         -8.1430   19.3550   23.6040 O.2   143  LYS143     -0.2864
     89  CB        -7.7100   16.8330   21.3520 C.3   143  LYS143      0.0298
     90  CG        -8.9330   16.4350   22.2010 C.3   143  LYS143      0.0038
     91  CD        -9.5080   15.1220   21.6660 C.3   143  LYS143      0.0206
     92  CE       -10.1770   14.2820   22.7300 C.3   143  LYS143      0.1093
     93  NZ        -9.1420   13.8650   23.7430 N.3   143  LYS143     -0.1314
@<TRIPOS>BOND
     1    10     9    1
     2    11     9    1
     3     9     8    2
     4     8     7    1
     5     6     5    1
     6     6     7    1
     7     5     2    1
     8     1     2    1
     9     2     3    1
    10    35    34    1
    11    34    33    1
    12     3     4    2
    13     3    12   am
    14    33    32    1
    15    12    13    1
    16    41    40    1
    17    13    14    1
    18    32    31    1
    19    31    28    1
    20    21    20    1
    21    22    20    1
    22    16    14   am
    23    16    17    1
    24    40    42    1
    25    40    37    1
    26    14    15    2
    27    20    17    1
    28    36    37    1
    29    36    29   am
    30    28    29    1
    31    28    27    1
    32    37    38    1
    33    17    18    1
    34    29    30    2
    35    27    25   am
    36    23    18   am
    37    23    24    1
    38    18    19    2
    39    38    39    2
    40    38    43   am
    41    25    24    1
    42    25    26    2
    43    43    44    1
    44    65    64    1
    45    48    47    1
    46    64    63    1
    47    44    47    1
    48    44    45    1
    49    45    46    2
    50    63    62    1
    51    56    54   am
    52    53    54    1
    53    53    50    1
    54    49    50    1
    55    62    61    1
    56    54    55    2
    57    50    51    1
    58    52    51    2
    59    51    57   am
    60    61    58    1
    61    84    81    1
    62    57    58    1
    63    58    59    1
    64    81    80    1
    65    81    82    1
    66    79    78    1
    67    59    60    2
    68    78    75    1
    69    82    85   am
    70    82    83    2
    71    85    86    1
    72    77    76    2
    73    89    86    1
    74    89    90    1
    75    72    71   ar
    76    86    87    1
    77    91    90    1
    78    91    92    1
    79    75    76    1
    80    75    74    1
    81    73    71   ar
    82    74    68   am
    83    71    70    1
    84    92    93    1
    85    87    88    2
    86    66    67    1
    87    68    67    1
    88    68    69    2
    89    70    67    1
