@<TRIPOS>MOLECULE
tmp/2il2A00.pdb
 217 211 0 0 0
SMALL
GASTEIGER

@<TRIPOS>ATOM
      1  N        -28.4040   -4.3220  -18.7980 N.3    16  THR16      -0.1203
      2  CA       -27.8460   -4.2210  -17.4470 C.3    16  THR16       0.1994
      3  C        -27.1360   -2.9010  -17.1600 C.2    16  THR16       0.2618
      4  O        -27.0400   -2.4960  -16.0190 O.2    16  THR16      -0.2717
      5  CB       -26.8940   -5.4070  -17.0990 C.3    16  THR16       0.1784
      6  OG1      -25.7670   -5.4070  -17.9830 O.3    16  THR16      -0.2211
      7  CG2      -27.6410   -6.7380  -17.1920 C.3    16  THR16       0.0376
      8  N        -26.6360   -2.2340  -18.1870 N.am   17  GLN17      -0.1965
      9  CA       -25.9600   -0.9290  -18.0220 C.3    17  GLN17       0.1733
     10  C        -26.5500    0.0730  -18.9910 C.2    17  GLN17       0.2616
     11  O        -26.7250   -0.2220  -20.1680 O.2    17  GLN17      -0.2715
     12  CB       -24.4620   -1.0910  -18.2470 C.3    17  GLN17       0.0408
     13  CG       -23.8350   -2.1900  -17.3770 C.3    17  GLN17       0.0908
     14  CD       -22.3940   -2.4050  -17.6710 C.2    17  GLN17       0.2608
     15  OE1      -21.7360   -1.5330  -18.2470 O.2    17  GLN17      -0.2717
     16  NE2      -21.8650   -3.5720  -17.2790 N.am   17  GLN17      -0.0878
     17  N        -26.8940    1.2450  -18.4770 N.am   18  TYR18      -0.1974
     18  CA       -27.4440    2.3460  -19.2770 C.3    18  TYR18       0.1639
     19  C        -26.5850    3.5610  -19.0060 C.2    18  TYR18       0.2290
     20  O        -26.4390    3.9680  -17.8510 O.2    18  TYR18      -0.2864
     21  CB       -28.8980    2.6550  -18.8760 C.3    18  TYR18       0.0560
     22  CG       -29.9030    1.5970  -19.2960 C.ar   18  TYR18      -0.0198
     23  CD1      -30.1210    0.4810  -18.5000 C.ar   18  TYR18      -0.0009
     24  CD2      -30.6220    1.7020  -20.4920 C.ar   18  TYR18      -0.0009
     25  CE1      -31.0280   -0.4950  -18.8600 C.ar   18  TYR18       0.0417
     26  CE2      -31.5600    0.7160  -20.8540 C.ar   18  TYR18       0.0417
     27  CZ       -31.7440   -0.3730  -20.0190 C.ar   18  TYR18       0.1957
     28  OH       -32.6310   -1.3720  -20.3180 O.3    18  TYR18      -0.2866
     29  N        -23.0700    6.3950  -16.0200 N.3    34  VAL34      -0.1245
     30  CA       -24.4030    6.0770  -15.5430 C.3    34  VAL34       0.1561
     31  C        -24.9620    7.2530  -14.7550 C.2    34  VAL34       0.2260
     32  O        -24.2890    7.8170  -13.8880 O.2    34  VAL34      -0.2867
     33  CB       -24.3590    4.8040  -14.6830 C.3    34  VAL34       0.0252
     34  CG1      -25.7050    4.5530  -13.9420 C.3    34  VAL34       0.0019
     35  CG2      -23.9530    3.6280  -15.5580 C.3    34  VAL34       0.0019
     36  N        -27.3630    8.2010  -12.0130 N.3    36  ASP36      -0.1239
     37  CA       -27.6640    7.3380  -10.8780 C.3    36  ASP36       0.1674
     38  C        -28.4160    8.0940   -9.7710 C.2    36  ASP36       0.2266
     39  O        -27.8180    8.8950   -9.0570 O.2    36  ASP36      -0.2867
     40  CB       -26.3060    6.8270  -10.3380 C.3    36  ASP36       0.1410
     41  CG       -26.4300    5.9950   -9.1040 C.2    36  ASP36       0.3668
     42  OD1      -25.3900    5.7960   -8.4500 O.co2  36  ASP36      -0.2456
     43  OD2      -27.5420    5.5310   -8.7830 O.co2  36  ASP36      -0.2456
     44  N        -29.4560    6.7770   -7.1540 N.3    38  GLY38      -0.1225
     45  CA       -29.0620    6.1760   -5.8850 C.3    38  GLY38       0.1811
     46  C        -27.7400    6.6440   -5.3010 C.2    38  GLY38       0.2280
     47  O        -27.2540    6.0380   -4.3700 O.2    38  GLY38      -0.2866
     48  N        -20.6760    1.6900   -3.1220 N.3    81  TYR81      -0.1227
     49  CA       -21.9060    1.1540   -3.6500 C.3    81  TYR81       0.1736
     50  C        -22.0710   -0.2140   -3.0050 C.2    81  TYR81       0.2596
     51  O        -21.1470   -0.7270   -2.3730 O.2    81  TYR81      -0.2718
     52  CB       -21.8440    1.0750   -5.1860 C.3    81  TYR81       0.0548
     53  CG       -21.5250    2.4010   -5.8270 C.ar   81  TYR81      -0.0200
     54  CD1      -20.2640    2.6560   -6.3410 C.ar   81  TYR81      -0.0009
     55  CD2      -22.4740    3.4280   -5.8650 C.ar   81  TYR81      -0.0009
     56  CE1      -19.9560    3.8840   -6.9050 C.ar   81  TYR81       0.0417
     57  CE2      -22.1740    4.6680   -6.4310 C.ar   81  TYR81       0.0417
     58  CZ       -20.9140    4.8870   -6.9460 C.ar   81  TYR81       0.1957
     59  OH       -20.5970    6.1040   -7.5200 O.3    81  TYR81      -0.2866
     60  N        -23.2340   -0.8180   -3.1690 N.am   82  SER82      -0.1938
     61  CA       -23.4730   -2.1190   -2.5730 C.3    82  SER82       0.2055
     62  C        -22.6260   -3.2160   -3.2220 C.2    82  SER82       0.2643
     63  O        -22.3890   -4.2210   -2.5970 O.2    82  SER82      -0.2714
     64  CB       -24.9530   -2.4740   -2.6610 C.3    82  SER82       0.2130
     65  OG       -25.3150   -2.7230   -3.9900 O.3    82  SER82      -0.2179
     66  N        -22.1780   -3.0180   -4.4720 N.am   83  THR83      -0.1950
     67  CA       -21.3720   -4.0180   -5.1480 C.3    83  THR83       0.1897
     68  C        -19.9080   -3.6560   -5.3640 C.2    83  THR83       0.2313
     69  O        -19.1800   -4.3880   -6.0440 O.2    83  THR83      -0.2863
     70  CB       -22.0350   -4.5110   -6.4510 C.3    83  THR83       0.1794
     71  OG1      -22.4060   -3.3960   -7.2740 O.3    83  THR83      -0.2208
     72  CG2      -23.2810   -5.3840   -6.0800 C.3    83  THR83       0.0378
     73  N        -16.1570   -4.8590   -9.3680 N.3   116  PRO116     -0.2102
     74  CA       -16.9750   -5.0160  -10.5860 C.3   116  PRO116      0.1504
     75  C        -16.5490   -4.2170  -11.8540 C.2   116  PRO116      0.2575
     76  O        -17.1780   -4.3670  -12.8970 O.2   116  PRO116     -0.2718
     77  CB       -18.3170   -4.4620  -10.1220 C.3   116  PRO116      0.0282
     78  CG       -17.9080   -3.2830   -9.2930 C.3   116  PRO116      0.0208
     79  CD       -16.6920   -3.7800   -8.5190 C.3   116  PRO116      0.0893
     80  N        -15.5270   -3.3700  -11.7690 N.am  117  PHE117     -0.1977
     81  CA       -15.3500   -2.3400  -12.7990 C.3   117  PHE117      0.1639
     82  C        -14.7290   -2.8010  -14.1110 C.2   117  PHE117      0.2290
     83  O        -14.9050   -2.1360  -15.1030 O.2   117  PHE117     -0.2864
     84  CB       -14.6820   -1.0960  -12.2190 C.3   117  PHE117      0.0560
     85  CG       -15.5320   -0.4240  -11.1650 C.ar  117  PHE117     -0.0200
     86  CD1      -15.2350   -0.5590   -9.8180 C.ar  117  PHE117     -0.0042
     87  CD2      -16.6770    0.2910  -11.5310 C.ar  117  PHE117     -0.0042
     88  CE1      -16.0760    0.0150   -8.8300 C.ar  117  PHE117     -0.0003
     89  CE2      -17.5160    0.8600  -10.5570 C.ar  117  PHE117     -0.0003
     90  CZ       -17.1990    0.7120   -9.1960 C.ar  117  PHE117     -0.0000
     91  N        -16.0600   -5.1570  -15.5560 N.3   119  LEU119     -0.1231
     92  CA       -17.2960   -5.5450  -16.2170 C.3   119  LEU119      0.1693
     93  C        -18.1760   -4.3700  -16.6380 C.2   119  LEU119      0.2591
     94  O        -19.2300   -4.5920  -17.2260 O.2   119  LEU119     -0.2718
     95  CB       -18.1090   -6.4820  -15.3250 C.3   119  LEU119      0.0284
     96  CG       -17.4180   -7.7480  -14.8450 C.3   119  LEU119      0.0019
     97  CD1      -18.3050   -8.4320  -13.8080 C.3   119  LEU119      0.0001
     98  CD2      -17.0900   -8.6830  -16.0290 C.3   119  LEU119      0.0001
     99  N        -17.7470   -3.1450  -16.3350 N.am  120  ALA120     -0.1980
    100  CA       -18.4420   -1.9430  -16.7330 C.3   120  ALA120      0.1597
    101  C        -18.0280   -1.4560  -18.1200 C.2   120  ALA120      0.2287
    102  O        -16.8380   -1.2860  -18.3920 O.2   120  ALA120     -0.2864
    103  CB       -18.2110   -0.8030  -15.6890 C.3   120  ALA120      0.0319
    104  N        -19.3360    1.4430  -18.9780 N.3   122  PHE122     -0.1241
    105  CA       -19.1950    2.8120  -18.5530 C.3   122  PHE122      0.1605
    106  C        -17.8720    3.0560  -17.8120 C.2   122  PHE122      0.2264
    107  O        -17.2260    2.1320  -17.2360 O.2   122  PHE122     -0.2867
    108  CB       -20.4200    3.2200  -17.7020 C.3   122  PHE122      0.0534
    109  CG       -20.5750    2.4380  -16.4180 C.ar  122  PHE122     -0.0203
    110  CD1      -21.3110    1.2540  -16.3870 C.ar  122  PHE122     -0.0042
    111  CD2      -19.9950    2.8990  -15.2190 C.ar  122  PHE122     -0.0042
    112  CE1      -21.4520    0.5400  -15.1970 C.ar  122  PHE122     -0.0003
    113  CE2      -20.1380    2.1990  -14.0350 C.ar  122  PHE122     -0.0003
    114  CZ       -20.8650    1.0010  -14.0250 C.ar  122  PHE122     -0.0000
    115  N        -19.6890    7.7490  -13.0880 N.3   125  VAL125     -0.1245
    116  CA       -21.0370    7.8720  -12.5630 C.3   125  VAL125      0.1561
    117  C        -21.3640    9.3400  -12.3460 C.2   125  VAL125      0.2260
    118  O        -20.5340   10.0920  -11.8590 O.2   125  VAL125     -0.2867
    119  CB       -21.2350    7.0740  -11.2120 C.3   125  VAL125      0.0252
    120  CG1      -22.6670    7.2310  -10.6850 C.3   125  VAL125      0.0019
    121  CG2      -20.8670    5.5730  -11.3620 C.3   125  VAL125      0.0019
    122  N        -35.7050    4.0010  -20.0310 N.3   160  TYR160     -0.1241
    123  CA       -34.8270    2.8870  -20.3370 C.3   160  TYR160      0.1605
    124  C        -35.4900    1.9060  -21.3040 C.2   160  TYR160      0.2264
    125  O        -36.4480    1.2370  -20.9490 O.2   160  TYR160     -0.2867
    126  CB       -34.4330    2.1160  -19.0710 C.3   160  TYR160      0.0534
    127  CG       -33.3940    2.7630  -18.1790 C.ar  160  TYR160     -0.0201
    128  CD1      -33.1200    2.2190  -16.9210 C.ar  160  TYR160     -0.0009
    129  CD2      -32.6580    3.8820  -18.5790 C.ar  160  TYR160     -0.0009
    130  CE1      -32.1760    2.7620  -16.0900 C.ar  160  TYR160      0.0417
    131  CE2      -31.6960    4.4510  -17.7250 C.ar  160  TYR160      0.0417
    132  CZ       -31.4630    3.8840  -16.4910 C.ar  160  TYR160      0.1957
    133  OH       -30.5170    4.4030  -15.6400 O.3   160  TYR160     -0.2866
    134  N        -34.0160    3.5870   -8.1690 N.3   224  ASP224     -0.1225
    135  CA       -32.5750    3.6200   -8.3560 C.3   224  ASP224      0.1805
    136  C        -32.1530    3.3900   -9.8090 C.2   224  ASP224      0.2598
    137  O        -32.0170    2.2700  -10.2480 O.2   224  ASP224     -0.2718
    138  CB       -31.9100    2.5850   -7.4210 C.3   224  ASP224      0.1424
    139  CG       -30.4060    2.8140   -7.2730 C.2   224  ASP224      0.3668
    140  OD1      -29.7710    2.1330   -6.4410 O.co2 224  ASP224     -0.2456
    141  OD2      -29.8480    3.6780   -7.9920 O.co2 224  ASP224     -0.2456
    142  N        -31.9020    4.4770  -10.5380 N.am  225  THR225     -0.1939
    143  CA       -31.5650    4.4040  -11.9560 C.3   225  THR225      0.2028
    144  C        -30.1610    3.8120  -12.1990 C.2   225  THR225      0.2643
    145  O        -29.8280    3.4320  -13.3090 O.2   225  THR225     -0.2714
    146  CB       -31.6810    5.7880  -12.6260 C.3   225  THR225      0.1808
    147  OG1      -30.6840    6.6830  -12.0740 O.3   225  THR225     -0.2208
    148  CG2      -33.0930    6.3550  -12.4050 C.3   225  THR225      0.0379
    149  N        -29.3590    3.7510  -11.1460 N.am  226  GLY226     -0.1939
    150  CA       -28.0140    3.2070  -11.2110 C.3   226  GLY226      0.2014
    151  C        -27.9020    1.7510  -10.8620 C.2   226  GLY226      0.2639
    152  O        -26.8200    1.2120  -10.9120 O.2   226  GLY226     -0.2714
    153  N        -29.0280    1.1130  -10.5400 N.am  227  ALA227     -0.1963
    154  CA       -29.1170   -0.3330  -10.2790 C.3   227  ALA227      0.1728
    155  C        -29.7020   -1.0670  -11.5050 C.2   227  ALA227      0.2617
    156  O        -30.6530   -0.5800  -12.1000 O.2   227  ALA227     -0.2715
    157  CB       -29.9910   -0.5540   -9.0940 C.3   227  ALA227      0.0334
    158  N        -29.1370   -2.2190  -11.8770 N.am  228  SER228     -0.1936
    159  CA       -29.6480   -3.0050  -12.9970 C.3   228  SER228      0.2055
    160  C        -30.9720   -3.6830  -12.7120 C.2   228  SER228      0.2643
    161  O        -31.7880   -3.8380  -13.5980 O.2   228  SER228     -0.2714
    162  CB       -28.6740   -4.1110  -13.4310 C.3   228  SER228      0.2130
    163  OG       -27.4000   -3.5890  -13.7640 O.3   228  SER228     -0.2179
    164  N        -31.1490   -4.1250  -11.4850 N.am  229  TYR229     -0.1973
    165  CA       -32.2260   -4.9990  -11.1330 C.3   229  TYR229      0.1639
    166  C        -33.2040   -4.3540  -10.1490 C.2   229  TYR229      0.2290
    167  O        -33.0410   -3.2220   -9.7050 O.2   229  TYR229     -0.2864
    168  CB       -31.6380   -6.2800  -10.5120 C.3   229  TYR229      0.0560
    169  CG       -30.8680   -7.1910  -11.4500 C.ar  229  TYR229     -0.0198
    170  CD1      -30.2500   -8.3310  -10.9670 C.ar  229  TYR229     -0.0009
    171  CD2      -30.7950   -6.9510  -12.8200 C.ar  229  TYR229     -0.0009
    172  CE1      -29.5730   -9.1920  -11.8250 C.ar  229  TYR229      0.0417
    173  CE2      -30.1080   -7.7880  -13.6680 C.ar  229  TYR229      0.0417
    174  CZ       -29.5040   -8.8980  -13.1800 C.ar  229  TYR229      0.1957
    175  OH       -28.8210   -9.7400  -14.0520 O.3   229  TYR229     -0.2866
    176  N        -24.3960  -15.3950   -7.2410 N.3   251  PHE251     -0.1227
    177  CA       -24.7280  -13.9880   -7.4990 C.3   251  PHE251      0.1736
    178  C        -26.1160  -13.7460   -8.0780 C.2   251  PHE251      0.2595
    179  O        -26.4790  -12.5920   -8.3990 O.2   251  PHE251     -0.2718
    180  CB       -23.7260  -13.3860   -8.4910 C.3   251  PHE251      0.0547
    181  CG       -22.3230  -13.4470   -8.0380 C.ar  251  PHE251     -0.0202
    182  CD1      -21.3630  -14.0880   -8.8030 C.ar  251  PHE251     -0.0042
    183  CD2      -21.9480  -12.8680   -6.8290 C.ar  251  PHE251     -0.0042
    184  CE1      -20.0460  -14.1480   -8.3560 C.ar  251  PHE251     -0.0003
    185  CE2      -20.6550  -12.9320   -6.3920 C.ar  251  PHE251     -0.0003
    186  CZ       -19.7030  -13.5650   -7.1500 C.ar  251  PHE251     -0.0000
    187  N        -26.8770  -14.8000   -8.2820 N.am  252  ASP252     -0.1974
    188  CA       -28.1640  -14.6350   -8.9300 C.3   252  ASP252      0.1709
    189  C        -29.1000  -15.7740   -8.5860 C.2   252  ASP252      0.2293
    190  O        -28.7500  -16.6910   -7.8260 O.2   252  ASP252     -0.2864
    191  CB       -27.9880  -14.4830  -10.4570 C.3   252  ASP252      0.1436
    192  CG       -27.5990  -15.7720  -11.1350 C.2   252  ASP252      0.3671
    193  OD1      -27.1750  -16.7140  -10.4390 O.co2 252  ASP252     -0.2456
    194  OD2      -27.7200  -15.8510  -12.3670 O.co2 252  ASP252     -0.2456
    195  N        -32.7370   -9.6270   -7.3920 N.3   299  HIS299     -0.1241
    196  CA       -31.7170  -10.2070   -6.5260 C.3   299  HIS299      0.1621
    197  C        -31.7750   -9.6570   -5.1050 C.2   299  HIS299      0.2264
    198  O        -32.5020   -8.7100   -4.8110 O.2   299  HIS299     -0.2867
    199  CB       -30.3080  -10.0670   -7.1560 C.3   299  HIS299      0.0745
    200  CG       -29.7860   -8.6650   -7.2100 C.ar  299  HIS299      0.0817
    201  ND1      -28.4950   -8.3410   -6.8440 N.ar  299  HIS299     -0.2268
    202  CD2      -30.3750   -7.5010   -7.5780 C.ar  299  HIS299      0.1154
    203  CE1      -28.3130   -7.0390   -6.9830 C.ar  299  HIS299      0.1986
    204  NE2      -29.4400   -6.5050   -7.4250 N.ar  299  HIS299     -0.2212
    205  N        -30.3310   -7.6860   -1.9910 N.3   301  MET301     -0.1245
    206  CA       -29.3790   -6.6350   -1.6380 C.3   301  MET301      0.1570
    207  C        -29.8070   -6.0350   -0.3120 C.2   301  MET301      0.2261
    208  O        -30.7940   -5.3170   -0.2450 O.2   301  MET301     -0.2867
    209  CB       -29.3360   -5.5640   -2.7250 C.3   301  MET301      0.0387
    210  CG       -28.0070   -4.8280   -2.8580 C.3   301  MET301      0.0595
    211  SD       -26.6090   -5.9370   -3.2790 S.3   301  MET301     -0.1393
    212  CE       -25.9000   -6.0980   -1.6150 C.3   301  MET301      0.0692
    213  N        -33.4230   -0.8250  -13.1170 N.3   315  ALA315     -0.1245
    214  CA       -33.7150   -0.8620  -14.5580 C.3   315  ALA315      0.1562
    215  C        -34.7850   -1.8910  -14.9260 C.2   315  ALA315      0.2260
    216  O        -35.5270   -1.6890  -15.8640 O.2   315  ALA315     -0.2867
    217  CB       -32.4490   -1.1140  -15.3610 C.3   315  ALA315      0.0290
@<TRIPOS>BOND
     1   124   125    2
     2   124   123    1
     3    26    24   ar
     4    26    27   ar
     5    24    22   ar
     6   123   122    1
     7   123   126    1
     8    28    27    1
     9    11    10    2
    10    27    25   ar
    11    22    21    1
    12    22    23   ar
    13    18    19    1
    14    18    21    1
    15    18    17    1
    16   126   127    1
    17    19    20    2
    18    10    17   am
    19    10     9    1
    20   104   105    1
    21    25    23   ar
    22     1     2    1
    23   129   127   ar
    24   129   131   ar
    25   105   106    1
    26   105   108    1
    27   102   101    2
    28    15    14    2
    29    12     9    1
    30    12    13    1
    31     8     9    1
    32     8     3   am
    33   127   128   ar
    34   101   100    1
    35     6     5    1
    36   106   107    2
    37   131   132   ar
    38   108   109    1
    39    14    13    1
    40    14    16   am
    41     2     3    1
    42     2     5    1
    43    94    93    2
    44     7     5    1
    45     3     4    2
    46   128   130   ar
    47   100    99    1
    48   100   103    1
    49    93    99   am
    50    93    92    1
    51   132   130   ar
    52   132   133    1
    53   109   110   ar
    54   109   111   ar
    55   110   112   ar
    56    92    91    1
    57    92    95    1
    58    98    96    1
    59    29    30    1
    60   216   215    2
    61    35    33    1
    62    30    31    1
    63    30    33    1
    64   217   214    1
    65    95    96    1
    66   111   113   ar
    67   112   114   ar
    68    83    82    2
    69   215   214    1
    70    96    97    1
    71    31    32    2
    72    33    34    1
    73   214   213    1
    74    82    81    1
    75   175   174    1
    76   113   114   ar
    77   163   162    1
    78   173   174   ar
    79   173   171   ar
    80   161   160    2
    81   162   159    1
    82   145   144    2
    83   174   172   ar
    84   115   116    1
    85   159   160    1
    86   159   158    1
    87    76    75    2
    88   171   169   ar
    89    81    84    1
    90    81    80    1
    91   160   164   am
    92   146   148    1
    93   146   147    1
    94   146   143    1
    95   116   117    1
    96   116   119    1
    97   194   192   ar
    98   117   118    2
    99    84    85    1
   100   144   143    1
   101   144   149   am
   102   156   155    2
   103    36    37    1
   104   143   142    1
   105   158   155   am
   106    75    80   am
   107    75    74    1
   108   172   170   ar
   109    87    85   ar
   110    87    89   ar
   111   155   154    1
   112   164   165    1
   113   169   170   ar
   114   169   168    1
   115   121   119    1
   116   119   120    1
   117   150   149    1
   118   150   151    1
   119    85    86   ar
   120   192   191    1
   121   192   193   ar
   122   165   168    1
   123   165   166    1
   124   152   151    2
   125    37    40    1
   126    37    38    1
   127   151   153   am
   128    74    77    1
   129    74    73    1
   130    89    90   ar
   131   153   154    1
   132   142   136   am
   133   191   188    1
   134    40    41    1
   135   154   157    1
   136   137   136    2
   137   166   167    2
   138    77    78    1
   139    86    88   ar
   140   136   135    1
   141    38    39    2
   142    73    79    1
   143    78    79    1
   144    90    88   ar
   145    41    43   ar
   146    41    42   ar
   147   188   189    1
   148   188   187    1
   149   182   184   ar
   150   182   181   ar
   151   189   190    2
   152   180   181    1
   153   180   177    1
   154   179   178    2
   155   135   134    1
   156   135   138    1
   157   184   186   ar
   158   187   178   am
   159   178   177    1
   160   181   183   ar
   161   141   139   ar
   162   202   204   ar
   163   202   200   ar
   164    59    58    1
   165   177   176    1
   166   204   203   ar
   167   138   139    1
   168   195   196    1
   169    71    70    1
   170   139   140   ar
   171   200   199    1
   172   200   201   ar
   173   199   196    1
   174    44    45    1
   175   186   185   ar
   176   203   201   ar
   177    58    56   ar
   178    58    57   ar
   179    56    54   ar
   180   183   185   ar
   181   196   197    1
   182    70    72    1
   183    70    67    1
   184    57    55   ar
   185    54    53   ar
   186    69    68    2
   187    45    46    1
   188    55    53   ar
   189    53    52    1
   190    68    67    1
   191    46    47    2
   192    52    49    1
   193    67    66    1
   194   197   198    2
   195    66    62   am
   196    65    64    1
   197    49    48    1
   198    49    50    1
   199   211   210    1
   200   211   212    1
   201    62    63    2
   202    62    61    1
   203    60    50   am
   204    60    61    1
   205    50    51    2
   206   210   209    1
   207   209   206    1
   208    64    61    1
   209   205   206    1
   210   206   207    1
   211   207   208    2
