@<TRIPOS>MOLECULE
tmp/2il4A00.pdb
 116 113 0 0 0
SMALL
GASTEIGER

@<TRIPOS>ATOM
      1  N         -5.1860   -1.1150    2.0990 N.3    37  THR37      -0.1203
      2  CA        -5.0150    0.2780    2.4880 C.3    37  THR37       0.1994
      3  C         -6.4050    0.9360    2.6370 C.2    37  THR37       0.2618
      4  O         -7.3130    0.6880    1.8270 O.2    37  THR37      -0.2717
      5  CB        -4.2000    1.0590    1.4530 C.3    37  THR37       0.1784
      6  OG1       -3.0680    0.2880    1.0150 O.3    37  THR37      -0.2211
      7  CG2       -3.7020    2.3770    2.0300 C.3    37  THR37       0.0376
      8  N         -6.5730    1.7710    3.6620 N.am   38  TYR38      -0.1961
      9  CA        -7.8340    2.4830    3.8100 C.3    38  TYR38       0.1771
     10  C         -7.5820    3.8930    4.3010 C.2    38  TYR38       0.2619
     11  O         -6.8940    4.0990    5.3030 O.2    38  TYR38      -0.2715
     12  CB        -8.8130    1.7030    4.7460 C.3    38  TYR38       0.0574
     13  CG       -10.0760    2.4780    5.0410 C.ar   38  TYR38      -0.0198
     14  CD1      -11.1540    2.4530    4.1490 C.ar   38  TYR38      -0.0009
     15  CD2      -10.1840    3.2680    6.1810 C.ar   38  TYR38      -0.0009
     16  CE1      -12.2740    3.1810    4.3680 C.ar   38  TYR38       0.0417
     17  CE2      -11.3420    4.0380    6.4090 C.ar   38  TYR38       0.0417
     18  CZ       -12.3770    3.9770    5.4900 C.ar   38  TYR38       0.1957
     19  OH       -13.5440    4.6670    5.6810 O.3    38  TYR38      -0.2866
     20  N         -8.1550    4.8580    3.5800 N.am   39  VAL39      -0.1977
     21  CA        -8.1740    6.2520    3.9990 C.3    39  VAL39       0.1596
     22  C         -9.6530    6.6510    4.0430 C.2    39  VAL39       0.2287
     23  O        -10.4090    6.3260    3.1220 O.2    39  VAL39      -0.2864
     24  CB        -7.3500    7.1670    3.0230 C.3    39  VAL39       0.0276
     25  CG1       -7.5680    8.6840    3.3010 C.3    39  VAL39       0.0022
     26  CG2       -5.8530    6.7940    3.0480 C.3    39  VAL39       0.0022
     27  N         -9.3430   11.8170    1.6320 N.3    44  ARG44      -0.1231
     28  CA        -8.9020   11.2030    0.3610 C.3    44  ARG44       0.1694
     29  C         -8.4550   12.1840   -0.7170 C.2    44  ARG44       0.2593
     30  O         -8.7850   13.3630   -0.6530 O.2    44  ARG44      -0.2718
     31  CB       -10.0120   10.3350   -0.2160 C.3    44  ARG44       0.0321
     32  CG       -10.0380    8.9700    0.4430 C.3    44  ARG44       0.0489
     33  CD       -11.3000    8.2340    0.0740 C.3    44  ARG44       0.2205
     34  NE       -11.5030    7.0720    0.9220 N.pl3  44  ARG44      -0.0865
     35  CZ       -12.6870    6.5340    1.1830 C.cat  44  ARG44       0.5346
     36  NH1      -13.7850    7.0490    0.6570 N.pl3  44  ARG44       0.1354
     37  NH2      -12.7640    5.4760    1.9810 N.pl3  44  ARG44       0.1354
     38  N         -7.7090   11.6700   -1.7010 N.am   45  GLY45      -0.1942
     39  CA        -7.2810   12.4110   -2.8790 C.3    45  GLY45       0.2014
     40  C         -6.2260   13.4420   -2.5210 C.2    45  GLY45       0.2639
     41  O         -5.9050   14.3300   -3.3430 O.2    45  GLY45      -0.2714
     42  N         -5.7010   13.3350   -1.2850 N.am   46  LEU46      -0.1963
     43  CA        -4.6910   14.2750   -0.7660 C.3    46  LEU46       0.1728
     44  C         -3.2970   13.6350   -0.5580 C.2    46  LEU46       0.2617
     45  O         -2.4290   14.2580    0.0120 O.2    46  LEU46      -0.2715
     46  CB        -5.1480   14.9150    0.5590 C.3    46  LEU46       0.0311
     47  CG        -6.5430   15.5270    0.6250 C.3    46  LEU46       0.0022
     48  CD1       -6.6800   16.3880    1.8680 C.3    46  LEU46       0.0001
     49  CD2       -6.8030   16.3810   -0.5940 C.3    46  LEU46       0.0001
     50  N         -3.0840   12.4100   -1.0110 N.am   47  GLY47      -0.1940
     51  CA        -1.7470   11.7990   -0.8770 C.3    47  GLY47       0.2014
     52  C         -1.5540   10.9890    0.4040 C.2    47  GLY47       0.2639
     53  O         -0.4700   10.4600    0.6460 O.2    47  GLY47      -0.2714
     54  N         -2.5990   10.8450    1.2150 N.am   48  LEU48      -0.1963
     55  CA        -2.4150   10.0840    2.4550 C.3    48  LEU48       0.1728
     56  C         -2.0330    8.6240    2.2300 C.2    48  LEU48       0.2616
     57  O         -1.1490    8.1340    2.9210 O.2    48  LEU48      -0.2715
     58  CB        -3.5680   10.2520    3.4480 C.3    48  LEU48       0.0311
     59  CG        -3.3130    9.6820    4.8640 C.3    48  LEU48       0.0022
     60  CD1       -1.9310   10.0730    5.4530 C.3    48  LEU48       0.0001
     61  CD2       -4.4120   10.1540    5.7920 C.3    48  LEU48       0.0001
     62  N         -2.6650    7.9210    1.2870 N.am   49  ALA49      -0.1963
     63  CA        -2.3280    6.5190    1.0750 C.3    49  ALA49       0.1728
     64  C         -0.8900    6.4100    0.5890 C.2    49  ALA49       0.2616
     65  O         -0.1850    5.5000    0.9300 O.2    49  ALA49      -0.2715
     66  CB        -3.2810    5.8650    0.0850 C.3    49  ALA49       0.0334
     67  N         -0.4520    7.3780   -0.2020 N.am   50  SER50      -0.1950
     68  CA         0.9320    7.3970   -0.6660 C.3    50  SER50       0.1924
     69  C          1.8890    7.4970    0.5330 C.2    50  SER50       0.2314
     70  O          2.8770    6.7630    0.5880 O.2    50  SER50      -0.2863
     71  CB         1.1620    8.5350   -1.6670 C.3    50  SER50       0.2116
     72  OG         2.4350    8.3510   -2.2240 O.3    50  SER50      -0.2180
     73  N         -4.4170   -3.3880   -4.1550 N.3    72  SER72      -0.1202
     74  CA        -4.4350   -2.7340   -5.4760 C.3    72  SER72       0.2020
     75  C         -3.9470   -1.2800   -5.4800 C.2    72  SER72       0.2618
     76  O         -3.4720   -0.7900   -6.5240 O.2    72  SER72      -0.2717
     77  CB        -5.7890   -2.8860   -6.1930 C.3    72  SER72       0.2103
     78  OG        -6.7730   -2.0260   -5.6510 O.3    72  SER72      -0.2182
     79  N         -4.0490   -0.5650   -4.3560 N.am   73  TYR73      -0.1975
     80  CA        -3.4670    0.8000   -4.3180 C.3    73  TYR73       0.1639
     81  C         -1.9690    0.6840   -4.5370 C.2    73  TYR73       0.2290
     82  O         -1.3460    1.4710   -5.2860 O.2    73  TYR73      -0.2864
     83  CB        -3.7670    1.5780   -3.0100 C.3    73  TYR73       0.0560
     84  CG        -3.1060    2.9590   -3.0370 C.ar   73  TYR73      -0.0198
     85  CD1       -3.7040    4.0350   -3.6790 C.ar   73  TYR73      -0.0009
     86  CD2       -1.8550    3.1480   -2.5050 C.ar   73  TYR73      -0.0009
     87  CE1       -3.0760    5.2800   -3.7160 C.ar   73  TYR73       0.0417
     88  CE2       -1.2020    4.3760   -2.5620 C.ar   73  TYR73       0.0417
     89  CZ        -1.8110    5.4330   -3.1740 C.ar   73  TYR73       0.1957
     90  OH        -1.1590    6.6360   -3.2280 O.3    73  TYR73      -0.2866
     91  N         -1.1440   -0.8540   -8.3070 N.3    76  ASP76      -0.1225
     92  CA        -1.7390   -0.1710   -9.4590 C.3    76  ASP76       0.1805
     93  C         -1.4930    1.3050   -9.4760 C.2    76  ASP76       0.2598
     94  O         -1.5880    1.9290  -10.5510 O.2    76  ASP76      -0.2718
     95  CB        -3.2400   -0.3900   -9.5080 C.3    76  ASP76       0.1424
     96  CG        -3.6430   -1.8460   -9.7470 C.2    76  ASP76       0.3668
     97  OD1       -2.7760   -2.7580   -9.9220 O.co2  76  ASP76      -0.2456
     98  OD2       -4.8750   -2.0460   -9.7510 O.co2  76  ASP76      -0.2456
     99  N         -1.2120    1.8920   -8.3110 N.am   77  THR77      -0.1953
    100  CA        -1.0340    3.3480   -8.2380 C.3    77  THR77       0.1897
    101  C          0.3070    3.7710   -7.6310 C.2    77  THR77       0.2313
    102  O          1.0560    4.5490   -8.2180 O.2    77  THR77      -0.2863
    103  CB        -2.2200    4.0140   -7.4670 C.3    77  THR77       0.1794
    104  OG1       -3.4040    3.9190   -8.2540 O.3    77  THR77      -0.2208
    105  CG2       -1.9250    5.5160   -7.1730 C.3    77  THR77       0.0378
    106  N          3.7550    5.0960   -9.9180 N.3    81  ARG81      -0.1245
    107  CA         4.0540    6.5200   -9.6980 C.3    81  ARG81       0.1563
    108  C          5.3570    6.7440   -8.9500 C.2    81  ARG81       0.2260
    109  O          5.8700    7.8730   -8.8960 O.2    81  ARG81      -0.2867
    110  CB         2.8960    7.2150   -8.9880 C.3    81  ARG81       0.0307
    111  CG         1.6320    7.2820   -9.8390 C.3    81  ARG81       0.0489
    112  CD         0.4870    7.8230   -8.9920 C.3    81  ARG81       0.2205
    113  NE        -0.7620    7.9240   -9.7190 N.pl3  81  ARG81      -0.0865
    114  CZ        -1.8100    8.6040   -9.2870 C.cat  81  ARG81       0.5346
    115  NH1       -1.7300    9.2780   -8.1380 N.pl3  81  ARG81       0.1354
    116  NH2       -2.9210    8.6280  -10.0070 N.pl3  81  ARG81       0.1354
@<TRIPOS>BOND
     1    94    93    2
     2   116   114    1
     3    97    96   ar
     4   106   107    1
     5   111   112    1
     6   111   110    1
     7    98    96   ar
     8    96    95    1
     9   113   114    2
    10   113   112    1
    11   107   110    1
    12   107   108    1
    13    95    92    1
    14    93    92    1
    15    93    99   am
    16    92    91    1
    17   114   115    1
    18   108   109    2
    19    99   100    1
    20   104   103    1
    21   100   101    1
    22   100   103    1
    23   102   101    2
    24   103   105    1
    25    76    75    2
    26    77    78    1
    27    77    74    1
    28    75    74    1
    29    75    79   am
    30    74    73    1
    31    82    81    2
    32    81    80    1
    33    79    80    1
    34    80    83    1
    35    87    85   ar
    36    87    89   ar
    37    85    84   ar
    38    41    40    2
    39    90    89    1
    40    89    88   ar
    41    84    83    1
    42    84    86   ar
    43    39    40    1
    44    39    38    1
    45    88    86   ar
    46    40    42   am
    47    72    71    1
    48    38    29   am
    49    71    68    1
    50    42    43    1
    51    50    51    1
    52    50    44   am
    53    51    52    1
    54    43    44    1
    55    43    46    1
    56    29    30    2
    57    29    28    1
    58    68    67    1
    59    68    69    1
    60    49    47    1
    61    44    45    2
    62    31    28    1
    63    31    32    1
    64    67    64   am
    65    33    32    1
    66    33    34    1
    67    66    63    1
    68    28    27    1
    69    52    53    2
    70    52    54   am
    71    69    70    2
    72    46    47    1
    73    64    65    2
    74    64    63    1
    75    47    48    1
    76    36    35    1
    77    34    35    2
    78     6     5    1
    79    63    62    1
    80    35    37    1
    81    54    55    1
    82    62    56   am
    83     5     7    1
    84     5     2    1
    85     4     3    2
    86     1     2    1
    87    56    55    1
    88    56    57    2
    89    55    58    1
    90     2     3    1
    91     3     8   am
    92    24    26    1
    93    24    25    1
    94    24    21    1
    95    23    22    2
    96    58    59    1
    97    20    21    1
    98    20    10   am
    99     8     9    1
   100     9    10    1
   101     9    12    1
   102    21    22    1
   103    14    16   ar
   104    14    13   ar
   105    10    11    2
   106    16    18   ar
   107    12    13    1
   108    59    60    1
   109    59    61    1
   110    13    15   ar
   111    18    19    1
   112    18    17   ar
   113    15    17   ar
