@<TRIPOS>MOLECULE
tmp/2ilmA00.pdb
 116 108 0 0 0
SMALL
GASTEIGER

@<TRIPOS>ATOM
      1  N         31.2310   29.0700   29.1190 N.3   195  GLU195     -0.1231
      2  CA        32.6290   29.1140   28.7440 C.3   195  GLU195      0.1699
      3  C         32.9590   27.8960   27.9030 C.2   195  GLU195      0.2592
      4  O         34.1190   27.6420   27.5990 O.2   195  GLU195     -0.2718
      5  CB        33.5010   29.1730   29.9990 C.3   195  GLU195      0.0402
      6  CG        33.4200   30.5200   30.7110 C.3   195  GLU195      0.1161
      7  CD        34.1910   30.5540   32.0140 C.2   195  GLU195      0.3649
      8  OE1       33.6580   30.0930   33.0500 O.co2 195  GLU195     -0.2457
      9  OE2       35.3390   31.0410   31.9940 O.co2 195  GLU195     -0.2457
     10  N         31.9280   27.1540   27.5120 N.am  196  GLN196     -0.1979
     11  CA        32.1220   25.9670   26.6820 C.3   196  GLN196      0.1601
     12  C         31.2540   26.0000   25.4180 C.2   196  GLN196      0.2287
     13  O         30.2670   26.7420   25.3570 O.2   196  GLN196     -0.2864
     14  CB        31.8310   24.7160   27.5130 C.3   196  GLN196      0.0394
     15  CG        32.7720   24.5790   28.7230 C.3   196  GLN196      0.0908
     16  CD        32.6060   23.2810   29.5230 C.2   196  GLN196      0.2608
     17  OE1       33.2470   23.1080   30.5580 O.2   196  GLN196     -0.2717
     18  NE2       31.7610   22.3720   29.0480 N.am  196  GLN196     -0.0878
     19  N         30.5900   29.2070   22.3320 N.3   268  MET268     -0.1230
     20  CA        31.1470   29.5840   23.6290 C.3   268  MET268      0.1702
     21  C         31.1220   31.1050   23.7810 C.2   268  MET268      0.2592
     22  O         31.4800   31.8200   22.8530 O.2   268  MET268     -0.2718
     23  CB        32.5890   29.0810   23.7010 C.3   268  MET268      0.0401
     24  CG        33.2430   29.1070   25.0760 C.3   268  MET268      0.0596
     25  SD        34.9460   28.4650   24.9600 S.3   268  MET268     -0.1393
     26  CE        35.4310   29.2110   23.2150 C.3   268  MET268      0.0692
     27  N         30.6700   31.5760   24.9460 N.am  269  TYR269     -0.1976
     28  CA        30.5750   33.0170   25.2710 C.3   269  TYR269      0.1639
     29  C         29.3310   33.7080   24.7190 C.2   269  TYR269      0.2290
     30  O         29.0560   34.8470   25.0890 O.2   269  TYR269     -0.2864
     31  CB        31.8260   33.7940   24.8080 C.3   269  TYR269      0.0560
     32  CG        33.0460   33.4910   25.6420 C.ar  269  TYR269     -0.0198
     33  CD1       33.1820   34.0180   26.9340 C.ar  269  TYR269     -0.0009
     34  CD2       34.0380   32.6280   25.1700 C.ar  269  TYR269     -0.0009
     35  CE1       34.2750   33.6870   27.7380 C.ar  269  TYR269      0.0417
     36  CE2       35.1430   32.2890   25.9670 C.ar  269  TYR269      0.0417
     37  CZ        35.2500   32.8210   27.2450 C.ar  269  TYR269      0.1957
     38  OH        36.3220   32.4910   28.0320 O.3   269  TYR269     -0.2866
     39  N         44.1580   28.0310   23.8520 N.3   295  THR295     -0.1218
     40  CA        44.4650   29.4290   23.5440 C.3   295  THR295      0.1862
     41  C         45.7340   29.5400   22.6940 C.2   295  THR295      0.2287
     42  O         46.7970   29.0630   23.0920 O.2   295  THR295     -0.2866
     43  CB        44.6780   30.2400   24.8220 C.3   295  THR295      0.1770
     44  OG1       43.6500   29.9250   25.7670 O.3   295  THR295     -0.2211
     45  CG2       44.6250   31.7220   24.5140 C.3   295  THR295      0.0375
     46  N         49.2800   35.7960   21.1650 N.3   298  ILE298     -0.1245
     47  CA        47.9580   36.2570   20.7630 C.3   298  ILE298      0.1561
     48  C         48.0850   37.1820   19.5710 C.2   298  ILE298      0.2260
     49  O         49.1840   37.5890   19.2170 O.2   298  ILE298     -0.2867
     50  CB        47.2550   37.0260   21.9030 C.3   298  ILE298      0.0252
     51  CG1       47.4220   36.3460   23.2660 C.3   298  ILE298      0.0019
     52  CG2       45.7870   37.2140   21.5690 C.3   298  ILE298      0.0019
     53  CD1       46.5130   35.1430   23.4310 C.3   298  ILE298      0.0001
     54  N         42.0750   42.1640   19.3800 N.3   302  LEU302     -0.1245
     55  CA        41.5850   41.0730   20.2150 C.3   302  LEU302      0.1561
     56  C         40.0940   40.8130   19.9640 C.2   302  LEU302      0.2260
     57  O         39.3340   41.7350   19.6790 O.2   302  LEU302     -0.2867
     58  CB        41.8150   41.4290   21.6800 C.3   302  LEU302      0.0270
     59  CG        42.5800   40.4610   22.5820 C.3   302  LEU302      0.0019
     60  CD1       43.8670   40.0180   21.9300 C.3   302  LEU302      0.0001
     61  CD2       42.8660   41.1490   23.9020 C.3   302  LEU302      0.0001
     62  N         37.6470   37.3440   24.0180 N.3   306  GLN306     -0.1245
     63  CA        38.9100   37.3750   24.7440 C.3   306  GLN306      0.1566
     64  C         38.8920   38.4610   25.8180 C.2   306  GLN306      0.2260
     65  O         39.4670   38.2850   26.8920 O.2   306  GLN306     -0.2867
     66  CB        40.0590   37.5900   23.7790 C.3   306  GLN306      0.0367
     67  CG        40.2050   36.4140   22.8290 C.3   306  GLN306      0.0905
     68  CD        41.2720   36.6300   21.8050 C.2   306  GLN306      0.2608
     69  OE1       41.1460   37.4910   20.9250 O.2   306  GLN306     -0.2717
     70  NE2       42.3480   35.8590   21.9130 N.am  306  GLN306     -0.0878
     71  N         37.1090   37.2290   28.7240 N.3   309  ALA309     -0.1231
     72  CA        38.0040   36.3420   29.4570 C.3   309  ALA309      0.1694
     73  C         38.9010   37.1780   30.3560 C.2   309  ALA309      0.2591
     74  O         39.1550   36.8210   31.5120 O.2   309  ALA309     -0.2718
     75  CB        38.8630   35.5380   28.4910 C.3   309  ALA309      0.0304
     76  N         39.3880   38.2870   29.8120 N.am  310  ILE310     -0.1980
     77  CA        40.2470   39.1830   30.5770 C.3   310  ILE310      0.1595
     78  C         39.5080   39.7810   31.7760 C.2   310  ILE310      0.2287
     79  O         40.0030   39.7450   32.9060 O.2   310  ILE310     -0.2864
     80  CB        40.7890   40.3190   29.7080 C.3   310  ILE310      0.0276
     81  CG1       41.7620   39.7470   28.6680 C.3   310  ILE310      0.0022
     82  CG2       41.4560   41.3660   30.5980 C.3   310  ILE310      0.0022
     83  CD1       42.3180   40.7630   27.7180 C.3   310  ILE310      0.0001
     84  N         38.9900   37.3030   34.5440 N.3   313  ASN313     -0.1225
     85  CA        40.2170   37.0520   35.2690 C.3   313  ASN313      0.1785
     86  C         40.5350   38.1950   36.2150 C.2   313  ASN313      0.2597
     87  O         40.8290   37.9480   37.3760 O.2   313  ASN313     -0.2718
     88  CB        41.3680   36.7690   34.2990 C.3   313  ASN313      0.1169
     89  CG        41.2790   35.3730   33.7200 C.2   313  ASN313      0.2627
     90  OD1       40.7830   34.4750   34.3850 O.2   313  ASN313     -0.2716
     91  ND2       41.7530   35.1860   32.4910 N.am  313  ASN313     -0.0877
     92  N         40.4270   39.4320   35.7340 N.am  314  ILE314     -0.1980
     93  CA        40.6840   40.5800   36.5750 C.3   314  ILE314      0.1595
     94  C         39.8150   40.4970   37.8300 C.2   314  ILE314      0.2287
     95  O         40.3290   40.6360   38.9370 O.2   314  ILE314     -0.2864
     96  CB        40.3880   41.8900   35.8440 C.3   314  ILE314      0.0276
     97  CG1       41.3230   42.0380   34.6500 C.3   314  ILE314      0.0022
     98  CG2       40.5380   43.0760   36.8060 C.3   314  ILE314      0.0022
     99  CD1       42.8070   42.0210   35.0210 C.3   314  ILE314      0.0001
    100  N         38.5040   37.9330   39.2270 N.3   316  LYS316     -0.1231
    101  CA        38.9290   36.7880   40.0340 C.3   316  LYS316      0.1693
    102  C         40.1850   37.1220   40.8400 C.2   316  LYS316      0.2591
    103  O         40.2050   36.9520   42.0450 O.2   316  LYS316     -0.2718
    104  CB        39.1960   35.5880   39.1290 C.3   316  LYS316      0.0285
    105  CG        37.9500   34.8310   38.7100 C.3   316  LYS316      0.0035
    106  CD        38.3240   33.7790   37.6690 C.3   316  LYS316      0.0206
    107  CE        37.1770   32.8510   37.3040 C.3   316  LYS316      0.1093
    108  NZ        37.6650   31.8410   36.3110 N.3   316  LYS316     -0.1314
    109  N         41.2220   37.5820   40.1570 N.am  317  MET317     -0.1979
    110  CA        42.4800   37.9830   40.7920 C.3   317  MET317      0.1605
    111  C         42.2780   39.0020   41.9180 C.2   317  MET317      0.2287
    112  O         42.8260   38.8400   43.0070 O.2   317  MET317     -0.2864
    113  CB        43.4370   38.5870   39.7640 C.3   317  MET317      0.0413
    114  CG        44.0450   37.5870   38.7990 C.3   317  MET317      0.0598
    115  SD        45.1320   38.3230   37.5520 S.3   317  MET317     -0.1393
    116  CE        46.7360   38.1760   38.3550 C.3   317  MET317      0.0692
@<TRIPOS>BOND
     1    49    48    2
     2    54    55    1
     3    48    47    1
     4    57    56    2
     5    56    55    1
     6    55    58    1
     7    47    46    1
     8    47    50    1
     9    69    68    2
    10    52    50    1
    11    58    59    1
    12    68    70   am
    13    68    67    1
    14    50    51    1
    15    60    59    1
    16    19    20    1
    17    59    61    1
    18    41    42    2
    19    41    40    1
    20    67    66    1
    21    22    21    2
    22    26    25    1
    23    51    53    1
    24    40    39    1
    25    40    43    1
    26    20    23    1
    27    20    21    1
    28    23    24    1
    29    66    63    1
    30    21    27   am
    31    62    63    1
    32    45    43    1
    33    29    30    2
    34    29    28    1
    35    63    64    1
    36    31    28    1
    37    31    32    1
    38    43    44    1
    39    27    28    1
    40    25    24    1
    41    34    32   ar
    42    34    36   ar
    43    13    12    2
    44    12    11    1
    45    32    33   ar
    46    64    65    2
    47    36    37   ar
    48    11    10    1
    49    11    14    1
    50    33    35   ar
    51    37    35   ar
    52    37    38    1
    53    10     3   am
    54    14    15    1
    55     4     3    2
    56    83    81    1
    57     3     2    1
    58    75    72    1
    59    81    80    1
    60    15    16    1
    61    71    72    1
    62     2     1    1
    63     2     5    1
    64    18    16   am
    65    72    73    1
    66    16    17    2
    67    80    77    1
    68    80    82    1
    69    76    73   am
    70    76    77    1
    71     5     6    1
    72    73    74    2
    73    77    78    1
    74     6     7    1
    75    78    79    2
    76     9     7   ar
    77     7     8   ar
    78    91    89   am
    79    89    88    1
    80    89    90    2
    81    88    85    1
    82    84    85    1
    83    97    99    1
    84    97    96    1
    85    85    86    1
    86    92    86   am
    87    92    93    1
    88    96    93    1
    89    96    98    1
    90    86    87    2
    91   108   107    1
    92    93    94    1
    93   107   106    1
    94   115   116    1
    95   115   114    1
    96   106   105    1
    97    94    95    2
    98   105   104    1
    99   114   113    1
   100   104   101    1
   101   100   101    1
   102   113   110    1
   103   101   102    1
   104   109   110    1
   105   109   102   am
   106   110   111    1
   107   102   103    2
   108   111   112    2
