@<TRIPOS>MOLECULE
tmp/2ilpB00.pdb
 141 138 0 0 0
SMALL
GASTEIGER

@<TRIPOS>ATOM
      1  N         36.4110   39.0770    7.9280 N.3    72  VAL72      -0.1245
      2  CA        34.9790   39.3280    8.1030 C.3    72  VAL72       0.1561
      3  C         34.6590   39.2460    9.6000 C.2    72  VAL72       0.2260
      4  O         34.7460   38.1710   10.2030 O.2    72  VAL72      -0.2867
      5  CB        34.1150   38.2810    7.3520 C.3    72  VAL72       0.0252
      6  CG1       32.6360   38.6580    7.3970 C.3    72  VAL72       0.0019
      7  CG2       34.5760   38.1220    5.9270 C.3    72  VAL72       0.0019
      8  N         30.2750   37.2820   14.8690 N.3   163  ILE163     -0.1231
      9  CA        30.2070   36.2630   13.8160 C.3   163  ILE163      0.1692
     10  C         31.3870   35.2880   13.9230 C.2   163  ILE163      0.2592
     11  O         31.5780   34.4350   13.0570 O.2   163  ILE163     -0.2718
     12  CB        30.1410   36.9500   12.4080 C.3   163  ILE163      0.0266
     13  CG1       29.5510   36.0280   11.3210 C.3   163  ILE163      0.0019
     14  CG2       31.5180   37.4500   12.0060 C.3   163  ILE163      0.0020
     15  CD1       28.0520   35.6870   11.4670 C.3   163  ILE163      0.0001
     16  N         32.1800   35.3810   14.9880 N.am  164  GLN164     -0.1966
     17  CA        33.2570   34.4110   15.1760 C.3   164  GLN164      0.1733
     18  C         32.7240   33.1960   15.9460 C.2   164  GLN164      0.2616
     19  O         32.8450   33.1160   17.1770 O.2   164  GLN164     -0.2715
     20  CB        34.4700   35.0350   15.8760 C.3   164  GLN164      0.0408
     21  CG        35.6790   34.1010   15.9640 C.3   164  GLN164      0.0908
     22  CD        35.9990   33.3760   14.6390 C.2   164  GLN164      0.2608
     23  OE1       36.1000   34.0010   13.5570 O.2   164  GLN164     -0.2717
     24  NE2       36.1680   32.0500   14.7250 N.am  164  GLN164     -0.0878
     25  N         32.1290   32.2620   15.2120 N.am  165  PHE165     -0.1960
     26  CA        31.6480   31.0100   15.7900 C.3   165  PHE165      0.1771
     27  C         32.8410   30.1210   16.0960 C.2   165  PHE165      0.2619
     28  O         33.8060   30.1060   15.3340 O.2   165  PHE165     -0.2715
     29  CB        30.7260   30.2790   14.8140 C.3   165  PHE165      0.0574
     30  CG        29.6310   31.1410   14.2500 C.ar  165  PHE165     -0.0200
     31  CD1       28.5890   31.5650   15.0490 C.ar  165  PHE165     -0.0042
     32  CD2       29.6550   31.5380   12.9070 C.ar  165  PHE165     -0.0042
     33  CE1       27.5730   32.3720   14.5400 C.ar  165  PHE165     -0.0003
     34  CE2       28.6440   32.3400   12.3900 C.ar  165  PHE165     -0.0003
     35  CZ        27.5970   32.7540   13.2130 C.ar  165  PHE165     -0.0000
     36  N         32.8050   29.4090   17.2210 N.am  166  GLU166     -0.1963
     37  CA        33.8620   28.4560   17.5110 C.3   166  GLU166      0.1733
     38  C         33.4910   27.4800   18.6120 C.2   166  GLU166      0.2616
     39  O         32.5340   27.6930   19.3520 O.2   166  GLU166     -0.2715
     40  CB        35.2050   29.1560   17.8240 C.3   166  GLU166      0.0429
     41  CG        35.4140   29.6350   19.2240 C.3   166  GLU166      0.1163
     42  CD        36.7950   30.2440   19.4080 C.2   166  GLU166      0.3649
     43  OE1       37.7950   29.4910   19.4780 O.co2 166  GLU166     -0.2457
     44  OE2       36.8750   31.4790   19.4830 O.co2 166  GLU166     -0.2457
     45  N         34.2480   26.3880   18.6700 N.am  167  CYS167     -0.1968
     46  CA        34.0500   25.3550   19.6670 C.3   167  CYS167      0.1712
     47  C         35.3640   25.2910   20.4260 C.2   167  CYS167      0.2296
     48  O         36.4250   25.0320   19.8250 O.2   167  CYS167     -0.2864
     49  CB        33.7270   24.0190   19.0120 C.3   167  CYS167      0.0983
     50  SG        33.3630   22.6750   20.1790 S.3   167  CYS167     -0.0798
     51  N         25.9460   34.7280    7.6460 N.3   196  PHE196     -0.1241
     52  CA        26.8830   35.3080    6.7020 C.3   196  PHE196      0.1605
     53  C         26.5390   34.8210    5.3000 C.2   196  PHE196      0.2264
     54  O         25.8450   33.8240    5.1330 O.2   196  PHE196     -0.2867
     55  CB        28.3330   34.9570    7.0880 C.3   196  PHE196      0.0534
     56  CG        28.6270   33.4820    7.0930 C.ar  196  PHE196     -0.0203
     57  CD1       29.2180   32.8740    5.9860 C.ar  196  PHE196     -0.0042
     58  CD2       28.2990   32.6960    8.1940 C.ar  196  PHE196     -0.0042
     59  CE1       29.4840   31.4900    5.9800 C.ar  196  PHE196     -0.0003
     60  CE2       28.5660   31.3610    8.2050 C.ar  196  PHE196     -0.0003
     61  CZ        29.1570   30.7390    7.0790 C.ar  196  PHE196     -0.0000
     62  N         28.0400   22.3860   12.0800 N.3   225  HIS225     -0.1226
     63  CA        29.4850   22.4780   11.9360 C.3   225  HIS225      0.1752
     64  C         30.2060   22.5250   13.3270 C.2   225  HIS225      0.2595
     65  O         31.1380   21.7450   13.6120 O.2   225  HIS225     -0.2718
     66  CB        29.8090   23.6960   11.0920 C.3   225  HIS225      0.0759
     67  CG        31.2640   23.9850   10.9730 C.ar  225  HIS225      0.0818
     68  ND1       31.9670   23.8140    9.7950 N.ar  225  HIS225     -0.2268
     69  CD2       32.1540   24.4430   11.8880 C.ar  225  HIS225      0.1154
     70  CE1       33.2290   24.1470    9.9980 C.ar  225  HIS225      0.1986
     71  NE2       33.3660   24.5360   11.2580 N.ar  225  HIS225     -0.2212
     72  N         29.7610   23.4330   14.1830 N.am  226  GLU226     -0.1979
     73  CA        30.3370   23.5410   15.5200 C.3   226  GLU226      0.1602
     74  C         30.0930   22.2890   16.3480 C.2   226  GLU226      0.2287
     75  O         30.9740   21.9120   17.1360 O.2   226  GLU226     -0.2864
     76  CB        29.8400   24.7720   16.2600 C.3   226  GLU226      0.0415
     77  CG        30.2930   26.0680   15.6010 C.3   226  GLU226      0.1163
     78  CD        31.8140   26.1430   15.3990 C.2   226  GLU226      0.3649
     79  OE1       32.2160   26.6740   14.3670 O.co2 226  GLU226     -0.2457
     80  OE2       32.6110   25.6550   16.2380 O.co2 226  GLU226     -0.2457
     81  N         32.7700   19.6840   15.4480 N.3   229  HIS229     -0.1241
     82  CA        33.9820   19.9060   16.2400 C.3   229  HIS229      0.1621
     83  C         33.8020   19.3650   17.6310 C.2   229  HIS229      0.2264
     84  O         34.7190   18.7790   18.1880 O.2   229  HIS229     -0.2867
     85  CB        34.2870   21.3830   16.4420 C.3   229  HIS229      0.0745
     86  CG        34.7730   22.0850   15.2330 C.ar  229  HIS229      0.0817
     87  ND1       35.8930   21.6920   14.5310 N.ar  229  HIS229     -0.2268
     88  CD2       34.3170   23.2090   14.6270 C.ar  229  HIS229      0.1154
     89  CE1       36.1010   22.5470   13.5420 C.ar  229  HIS229      0.1986
     90  NE2       35.1690   23.4850   13.5940 N.ar  229  HIS229     -0.2212
     91  N         39.4530   22.1880   10.4130 N.3   252  GLU252     -0.1245
     92  CA        38.3790   22.8420    9.6620 C.3   252  GLU252      0.1567
     93  C         38.0590   22.1200    8.3700 C.2   252  GLU252      0.2260
     94  O         36.8900   21.9490    8.0380 O.2   252  GLU252     -0.2867
     95  CB        38.7410   24.2960    9.3450 C.3   252  GLU252      0.0388
     96  CG        38.8440   25.1890   10.5740 C.3   252  GLU252      0.1160
     97  CD        37.5620   25.3100   11.3600 C.2   252  GLU252      0.3649
     98  OE1       37.6390   25.8110   12.5030 O.co2 252  GLU252     -0.2457
     99  OE2       36.4650   24.9210   10.8800 O.co2 252  GLU252     -0.2457
    100  N         27.9390   27.1520    0.5920 N.3   353  ARG353     -0.1245
    101  CA        29.1670   27.2820   -0.1680 C.3   353  ARG353      0.1563
    102  C         29.8440   25.9230   -0.3380 C.2   353  ARG353      0.2260
    103  O         29.6950   25.0330    0.4920 O.2   353  ARG353     -0.2867
    104  CB        30.1270   28.2830    0.4750 C.3   353  ARG353      0.0307
    105  CG        30.7400   27.8060    1.7720 C.3   353  ARG353      0.0489
    106  CD        31.2480   28.9850    2.5830 C.3   353  ARG353      0.2205
    107  NE        32.0800   28.6070    3.7350 N.pl3 353  ARG353     -0.0865
    108  CZ        31.6360   28.1800    4.9170 C.cat 353  ARG353      0.5346
    109  NH1       30.3530   27.9930    5.1320 N.pl3 353  ARG353      0.1354
    110  NH2       32.5010   27.8820    5.8870 N.pl3 353  ARG353      0.1354
    111  N         35.3620   25.6740    2.1670 N.3   356  TYR356     -0.1241
    112  CA        35.3890   26.3580    3.4670 C.3   356  TYR356      0.1605
    113  C         35.6380   27.8780    3.3550 C.2   356  TYR356      0.2264
    114  O         34.9750   28.6770    4.0080 O.2   356  TYR356     -0.2867
    115  CB        36.4520   25.7080    4.3700 C.3   356  TYR356      0.0534
    116  CG        36.5230   26.3280    5.7430 C.ar  356  TYR356     -0.0201
    117  CD1       37.5720   27.1790    6.0860 C.ar  356  TYR356     -0.0009
    118  CD2       35.5410   26.0760    6.6890 C.ar  356  TYR356     -0.0009
    119  CE1       37.6300   27.7670    7.3260 C.ar  356  TYR356      0.0417
    120  CE2       35.5970   26.6610    7.9620 C.ar  356  TYR356      0.0417
    121  CZ        36.6460   27.5020    8.2610 C.ar  356  TYR356      0.1957
    122  OH        36.7220   28.1010    9.4880 O.3   356  TYR356     -0.2866
    123  N         33.3250   32.1940    1.2340 N.3   359  PHE359     -0.1227
    124  CA        32.2090   32.9810    1.7300 C.3   359  PHE359      0.1736
    125  C         32.4840   34.4310    1.3980 C.2   359  PHE359      0.2595
    126  O         33.6090   34.7990    1.0290 O.2   359  PHE359     -0.2718
    127  CB        31.9700   32.7900    3.2460 C.3   359  PHE359      0.0547
    128  CG        33.1930   33.0100    4.0860 C.ar  359  PHE359     -0.0202
    129  CD1       33.9760   31.9310    4.4790 C.ar  359  PHE359     -0.0042
    130  CD2       33.5710   34.2890    4.4690 C.ar  359  PHE359     -0.0042
    131  CE1       35.1110   32.1120    5.2360 C.ar  359  PHE359     -0.0003
    132  CE2       34.7280   34.4910    5.2330 C.ar  359  PHE359     -0.0003
    133  CZ        35.4990   33.4000    5.6130 C.ar  359  PHE359     -0.0000
    134  N         31.4370   35.2370    1.5470 N.am  360  ASP360     -0.1974
    135  CA        31.4500   36.6670    1.2690 C.3   360  ASP360      0.1709
    136  C         31.6940   37.4900    2.5290 C.2   360  ASP360      0.2293
    137  O         31.4080   37.0570    3.6430 O.2   360  ASP360     -0.2864
    138  CB        30.0940   37.0880    0.6770 C.3   360  ASP360      0.1436
    139  CG        29.9590   36.7450   -0.7980 C.2   360  ASP360      0.3671
    140  OD1       30.9580   36.3220   -1.4220 O.co2 360  ASP360     -0.2456
    141  OD2       28.8360   36.9090   -1.3340 O.co2 360  ASP360     -0.2456
@<TRIPOS>BOND
     1   140   139   ar
     2   141   139   ar
     3   139   138    1
     4   102   101    1
     5   102   103    2
     6   101   104    1
     7   101   100    1
     8   104   105    1
     9   138   135    1
    10   126   125    2
    11   123   124    1
    12   135   134    1
    13   135   136    1
    14   125   134   am
    15   125   124    1
    16   124   127    1
    17   105   106    1
    18   111   112    1
    19   136   137    2
    20   106   107    1
    21   127   128    1
    22   113   112    1
    23   113   114    2
    24   112   115    1
    25   107   108    2
    26   128   130   ar
    27   128   129   ar
    28   115   116    1
    29   130   132   ar
    30   129   131   ar
    31   108   109    1
    32   108   110    1
    33    54    53    2
    34   132   133   ar
    35   131   133   ar
    36    53    52    1
    37   116   117   ar
    38   116   118   ar
    39     7     5    1
    40    59    57   ar
    41    59    61   ar
    42    57    56   ar
    43   117   119   ar
    44   118   120   ar
    45    52    55    1
    46    52    51    1
    47    61    60   ar
    48    55    56    1
    49    56    58   ar
    50   119   121   ar
    51     5     6    1
    52     5     2    1
    53     1     2    1
    54   120   121   ar
    55    94    93    2
    56     2     3    1
    57    58    60   ar
    58   121   122    1
    59    93    92    1
    60    95    92    1
    61    95    96    1
    62     3     4    2
    63    92    91    1
    64    68    70   ar
    65    68    67   ar
    66    70    71   ar
    67    96    97    1
    68    99    97   ar
    69    67    66    1
    70    67    69   ar
    71    66    63    1
    72    71    69   ar
    73    13    15    1
    74    13    12    1
    75    97    98   ar
    76    63    62    1
    77    63    64    1
    78    14    12    1
    79    34    32   ar
    80    34    35   ar
    81    12     9    1
    82    32    30   ar
    83    11    10    2
    84    35    33   ar
    85    64    65    2
    86    64    72   am
    87    89    90   ar
    88    89    87   ar
    89    23    22    2
    90    90    88   ar
    91     9    10    1
    92     9     8    1
    93    10    16   am
    94    72    73    1
    95    30    29    1
    96    30    31   ar
    97    79    78   ar
    98    87    86   ar
    99    33    31   ar
   100    88    86   ar
   101    22    24   am
   102    22    21    1
   103    29    26    1
   104    16    17    1
   105    17    20    1
   106    17    18    1
   107    25    26    1
   108    25    18   am
   109    86    85    1
   110    28    27    2
   111    78    77    1
   112    78    80   ar
   113    81    82    1
   114    73    76    1
   115    73    74    1
   116    77    76    1
   117    26    27    1
   118    20    21    1
   119    18    19    2
   120    27    36   am
   121    82    85    1
   122    82    83    1
   123    74    75    2
   124    36    37    1
   125    37    40    1
   126    37    38    1
   127    83    84    2
   128    40    41    1
   129    38    45   am
   130    38    39    2
   131    45    46    1
   132    49    46    1
   133    49    50    1
   134    41    42    1
   135    42    43   ar
   136    42    44   ar
   137    46    47    1
   138    48    47    2
