@<TRIPOS>MOLECULE
tmp/2iltA01.pdb
 162 153 0 0 0
SMALL
GASTEIGER

@<TRIPOS>ATOM
      1  N         56.7610  111.4160   48.6020 N.3   111  ILE111     -0.1245
      2  CA        58.0660  111.5100   49.2640 C.3   111  ILE111      0.1561
      3  C         58.7740  112.7720   48.7740 C.2   111  ILE111      0.2260
      4  O         58.4240  113.2970   47.7180 O.2   111  ILE111     -0.2867
      5  CB        58.9810  110.2670   48.9940 C.3   111  ILE111      0.0252
      6  CG1       58.8520  109.7620   47.5510 C.3   111  ILE111      0.0019
      7  CG2       58.6490  109.1310   49.9450 C.3   111  ILE111      0.0019
      8  CD1       59.6480  110.5260   46.5090 C.3   111  ILE111      0.0001
      9  N         62.1410  114.4730   47.0950 N.3   113  ASN113     -0.1225
     10  CA        63.0820  113.9510   46.0830 C.3   113  ASN113      0.1785
     11  C         64.3400  113.3320   46.7120 C.2   113  ASN113      0.2597
     12  O         64.9900  113.9440   47.5720 O.2   113  ASN113     -0.2718
     13  CB        63.4680  115.0350   45.0610 C.3   113  ASN113      0.1169
     14  CG        62.2590  115.6130   44.3130 C.2   113  ASN113      0.2627
     15  OD1       61.2570  114.9230   44.0630 O.2   113  ASN113     -0.2716
     16  ND2       62.3600  116.8900   43.9360 N.am  113  ASN113     -0.0877
     17  N         64.6600  112.1060   46.3090 N.am  114  THR114     -0.1953
     18  CA        65.8300  111.4030   46.8600 C.3   114  THR114      0.1897
     19  C         66.6390  110.6430   45.8010 C.2   114  THR114      0.2313
     20  O         66.0860  110.1350   44.8190 O.2   114  THR114     -0.2863
     21  CB        65.4670  110.5040   48.0930 C.3   114  THR114      0.1794
     22  OG1       66.3050  109.3450   48.1320 O.3   114  THR114     -0.2208
     23  CG2       64.0290  110.0540   48.0480 C.3   114  THR114      0.0378
     24  N         70.4090  108.0070   45.1780 N.3   116  LEU116     -0.1245
     25  CA        71.3800  107.0930   45.7950 C.3   116  LEU116      0.1561
     26  C         72.7440  107.7600   45.9620 C.2   116  LEU116      0.2260
     27  O         73.4110  108.0890   44.9810 O.2   116  LEU116     -0.2867
     28  CB        71.5480  105.8050   44.9810 C.3   116  LEU116      0.0270
     29  CG        70.3640  104.9340   44.5510 C.3   116  LEU116      0.0019
     30  CD1       70.8960  103.5760   44.1430 C.3   116  LEU116      0.0001
     31  CD2       69.3300  104.7670   45.6380 C.3   116  LEU116      0.0001
     32  N         58.3440  100.9520   51.9080 N.3   160  SER160     -0.1202
     33  CA        59.3910  100.3870   51.0720 C.3   160  SER160      0.2020
     34  C         60.0620   99.2180   51.7780 C.2   160  SER160      0.2619
     35  O         60.0100   99.1260   53.0010 O.2   160  SER160     -0.2717
     36  CB        60.4410  101.4660   50.7800 C.3   160  SER160      0.2103
     37  OG        61.6720  100.8880   50.3490 O.3   160  SER160     -0.2182
     38  N         60.7180   98.3540   50.9990 N.am  161  LEU161     -0.1965
     39  CA        61.6320   97.3330   51.5410 C.3   161  LEU161      0.1728
     40  C         62.6750   97.9890   52.4670 C.2   161  LEU161      0.2616
     41  O         63.0520   97.4170   53.4920 O.2   161  LEU161     -0.2715
     42  CB        62.3530   96.6020   50.4010 C.3   161  LEU161      0.0311
     43  CG        61.6270   95.6310   49.4550 C.3   161  LEU161      0.0022
     44  CD1       62.6270   95.0330   48.4580 C.3   161  LEU161      0.0001
     45  CD2       60.8920   94.5230   50.1890 C.3   161  LEU161      0.0001
     46  N         63.1000   99.2010   52.1080 N.am  162  ALA162     -0.1977
     47  CA        63.9990  100.0260   52.9340 C.3   162  ALA162      0.1597
     48  C         63.3240  100.6140   54.1620 C.2   162  ALA162      0.2287
     49  O         63.9560  101.3280   54.9300 O.2   162  ALA162     -0.2864
     50  CB        64.6630  101.1240   52.1000 C.3   162  ALA162      0.0319
     51  N         69.6340   99.2430   53.8660 N.3   167  TYR167     -0.1228
     52  CA        70.2720   99.3330   52.5540 C.3   167  TYR167      0.1721
     53  C         71.2140  100.5390   52.5750 C.2   167  TYR167      0.2437
     54  O         70.8460  101.5920   53.1130 O.2   167  TYR167     -0.2733
     55  CB        69.2370   99.6190   51.4610 C.3   167  TYR167      0.0547
     56  CG        68.2700   98.5070   51.1100 C.ar  167  TYR167     -0.0200
     57  CD1       67.0240   98.4220   51.7300 C.ar  167  TYR167     -0.0009
     58  CD2       68.5790   97.5730   50.1270 C.ar  167  TYR167     -0.0009
     59  CE1       66.1280   97.4240   51.4090 C.ar  167  TYR167      0.0417
     60  CE2       67.6750   96.5610   49.7920 C.ar  167  TYR167      0.0417
     61  CZ        66.4490   96.5020   50.4390 C.ar  167  TYR167      0.1957
     62  OH        65.5570   95.5120   50.1200 O.3   167  TYR167     -0.2866
     63  N         72.4110  100.4130   51.9640 N.am  168  PRO168     -0.2718
     64  CA        73.2570  101.5940   51.8150 C.3   168  PRO168      0.1535
     65  C         72.6740  102.5610   50.7780 C.2   168  PRO168      0.2598
     66  O         71.8430  102.1580   49.9620 O.2   168  PRO168     -0.2715
     67  CB        74.5900  101.0110   51.3190 C.3   168  PRO168      0.0310
     68  CG        74.1930   99.7350   50.5910 C.3   168  PRO168      0.0237
     69  CD        73.0370   99.2000   51.3960 C.3   168  PRO168      0.0939
     70  N         73.1050  103.8230   50.8230 N.am  169  MET169     -0.1964
     71  CA        72.7850  104.8300   49.7950 C.3   169  MET169      0.1736
     72  C         71.4360  105.5230   49.9840 C.2   169  MET169      0.2616
     73  O         71.1430  106.4900   49.2870 O.2   169  MET169     -0.2715
     74  CB        72.8550  104.2590   48.3730 C.3   169  MET169      0.0427
     75  CG        74.0130  103.3220   48.1200 C.3   169  MET169      0.0599
     76  SD        75.5580  104.1950   48.1390 S.3   169  MET169     -0.1393
     77  CE        75.6540  104.5950   46.3860 C.3   169  MET169      0.0692
     78  N         70.6270  105.0190   50.9140 N.am  170  VAL170     -0.1977
     79  CA        69.3030  105.5830   51.1800 C.3   170  VAL170      0.1596
     80  C         69.0430  105.7480   52.6700 C.2   170  VAL170      0.2287
     81  O         67.9410  105.4510   53.1370 O.2   170  VAL170     -0.2864
     82  CB        68.1750  104.7260   50.5440 C.3   170  VAL170      0.0276
     83  CG1       68.0960  104.9730   49.0410 C.3   170  VAL170      0.0022
     84  CG2       68.3780  103.2350   50.8300 C.3   170  VAL170      0.0022
     85  N         66.1130  108.5030   53.6370 N.3   173  TYR173     -0.1241
     86  CA        64.8880  107.8910   53.1350 C.3   173  TYR173      0.1605
     87  C         64.5130  106.6650   53.9830 C.2   173  TYR173      0.2264
     88  O         63.3480  106.5100   54.3840 O.2   173  TYR173     -0.2867
     89  CB        65.0860  107.5060   51.6540 C.3   173  TYR173      0.0534
     90  CG        63.9790  106.6680   51.0350 C.ar  173  TYR173     -0.0201
     91  CD1       62.8390  107.2620   50.4980 C.ar  173  TYR173     -0.0009
     92  CD2       64.0830  105.2790   50.9730 C.ar  173  TYR173     -0.0009
     93  CE1       61.8250  106.4830   49.9250 C.ar  173  TYR173      0.0417
     94  CE2       63.0870  104.5040   50.4010 C.ar  173  TYR173      0.0417
     95  CZ        61.9650  105.1090   49.8890 C.ar  173  TYR173      0.1957
     96  OH        60.9860  104.3350   49.3280 O.3   173  TYR173     -0.2866
     97  N         57.0110   97.9050   49.4730 N.3   205  LEU205     -0.1231
     98  CA        57.2050   97.7290   48.0390 C.3   205  LEU205      0.1693
     99  C         58.6740   97.6010   47.6960 C.2   205  LEU205      0.2593
    100  O         59.5130   98.3470   48.2110 O.2   205  LEU205     -0.2718
    101  CB        56.6350   98.9210   47.2610 C.3   205  LEU205      0.0284
    102  CG        55.3100   99.5760   47.6640 C.3   205  LEU205      0.0019
    103  CD1       55.1320  100.8690   46.8630 C.3   205  LEU205      0.0001
    104  CD2       54.1530   98.6270   47.4560 C.3   205  LEU205      0.0001
    105  N         58.9770   96.6520   46.8150 N.am  206  GLY206     -0.1942
    106  CA        60.3170   96.5330   46.2460 C.3   206  GLY206      0.2014
    107  C         60.4310   97.5560   45.1390 C.2   206  GLY206      0.2638
    108  O         59.5900   98.4500   45.0440 O.2   206  GLY206     -0.2714
    109  N         61.4510   97.4220   44.2980 N.am  207  LEU207     -0.1977
    110  CA        61.6880   98.3710   43.2130 C.3   207  LEU207      0.1596
    111  C         60.5540   98.3800   42.1870 C.2   207  LEU207      0.2287
    112  O         60.1720   97.3380   41.6580 O.2   207  LEU207     -0.2864
    113  CB        63.0410   98.0920   42.5230 C.3   207  LEU207      0.0297
    114  CG        63.5480   99.1940   41.5780 C.3   207  LEU207      0.0022
    115  CD1       63.9030  100.4660   42.3590 C.3   207  LEU207      0.0001
    116  CD2       64.7340   98.7170   40.7400 C.3   207  LEU207      0.0001
    117  N         58.8010  103.1590   38.0100 N.3   210  THR210     -0.1218
    118  CA        58.5160  104.5680   37.7510 C.3   210  THR210      0.1862
    119  C         59.7550  105.2280   37.1820 C.2   210  THR210      0.2287
    120  O         60.8830  104.8330   37.5040 O.2   210  THR210     -0.2866
    121  CB        58.1160  105.3280   39.0220 C.3   210  THR210      0.1770
    122  OG1       59.1860  105.2570   39.9710 O.3   210  THR210     -0.2211
    123  CG2       56.8420  104.7460   39.6270 C.3   210  THR210      0.0375
    124  N         61.0910  108.0110   37.9590 N.3   212  THR212     -0.1203
    125  CA        61.9120  108.5260   39.0650 C.3   212  THR212      0.1994
    126  C         62.8280  107.4610   39.6830 C.2   212  THR212      0.2617
    127  O         64.0200  107.6970   39.8300 O.2   212  THR212     -0.2717
    128  CB        61.0520  109.2250   40.1470 C.3   212  THR212      0.1784
    129  OG1       60.2150  110.2140   39.5310 O.3   212  THR212     -0.2211
    130  CG2       61.9270  109.9250   41.1660 C.3   212  THR212      0.0376
    131  N         62.2790  106.2910   40.0150 N.am  213  ALA213     -0.1979
    132  CA        63.0740  105.1600   40.5270 C.3   213  ALA213      0.1597
    133  C         64.0910  104.6430   39.5130 C.2   213  ALA213      0.2287
    134  O         65.2450  104.3880   39.8600 O.2   213  ALA213     -0.2864
    135  CB        62.1720  104.0270   40.9640 C.3   213  ALA213      0.0319
    136  N         66.9030  106.9680   39.2810 N.3   216  ALA216     -0.1231
    137  CA        67.6730  106.9530   40.5240 C.3   216  ALA216      0.1694
    138  C         68.6320  105.7640   40.6240 C.2   216  ALA216      0.2591
    139  O         69.7140  105.8810   41.2020 O.2   216  ALA216     -0.2718
    140  CB        66.7440  107.0000   41.7210 C.3   216  ALA216      0.0304
    141  N         68.2420  104.6360   40.0380 N.am  217  VAL217     -0.1980
    142  CA        69.0230  103.4060   40.1300 C.3   217  VAL217      0.1595
    143  C         69.9070  103.1080   38.9110 C.2   217  VAL217      0.2287
    144  O         70.7100  102.1790   38.9510 O.2   217  VAL217     -0.2864
    145  CB        68.1270  102.1750   40.4460 C.3   217  VAL217      0.0276
    146  CG1       67.3760  102.3820   41.7660 C.3   217  VAL217      0.0022
    147  CG2       67.1680  101.8610   39.2890 C.3   217  VAL217      0.0022
    148  N         72.2710  100.1560   40.6640 N.3   221  VAL221     -0.1245
    149  CA        71.7090   98.8390   40.9890 C.3   221  VAL221      0.1561
    150  C         71.1550   98.1880   39.7260 C.2   221  VAL221      0.2260
    151  O         70.5420   98.8560   38.8860 O.2   221  VAL221     -0.2867
    152  CB        70.6470   98.8560   42.1650 C.3   221  VAL221      0.0252
    153  CG1       70.9510   99.9560   43.1870 C.3   221  VAL221      0.0019
    154  CG2       69.2170   98.9810   41.6550 C.3   221  VAL221      0.0019
    155  N         68.7010   95.4920   38.9600 N.3   223  MET223     -0.1245
    156  CA        67.6340   94.5910   39.4150 C.3   223  MET223      0.1570
    157  C         66.3200   94.7600   38.6380 C.2   223  MET223      0.2261
    158  O         66.0910   95.7830   37.9780 O.2   223  MET223     -0.2867
    159  CB        67.4000   94.7380   40.9320 C.3   223  MET223      0.0387
    160  CG        68.5400   94.1760   41.8070 C.3   223  MET223      0.0595
    161  SD        68.2860   94.2560   43.6080 S.3   223  MET223     -0.1393
    162  CE        67.1370   92.8980   43.8710 C.3   223  MET223      0.0692
@<TRIPOS>BOND
     1   119   120    2
     2   119   118    1
     3   118   117    1
     4   118   121    1
     5   124   125    1
     6   158   157    2
     7   157   156    1
     8   151   150    2
     9   143   144    2
    10   143   142    1
    11   155   156    1
    12   121   123    1
    13   121   122    1
    14   125   126    1
    15   125   128    1
    16   136   137    1
    17   147   145    1
    18   156   159    1
    19   133   134    2
    20   133   132    1
    21   129   128    1
    22   126   127    2
    23   126   131   am
    24   150   149    1
    25   131   132    1
    26   141   142    1
    27   141   138   am
    28   142   145    1
    29   128   130    1
    30   145   146    1
    31   137   138    1
    32   137   140    1
    33   132   135    1
    34   138   139    2
    35   148   149    1
    36   116   114    1
    37   159   160    1
    38   149   152    1
    39   114   115    1
    40   114   113    1
    41   154   152    1
    42   112   111    2
    43   160   161    1
    44   152   153    1
    45   111   110    1
    46   113   110    1
    47   110   109    1
    48   161   162    1
    49    16    14   am
    50    15    14    2
    51    30    29    1
    52   109   107   am
    53    14    13    1
    54    29    28    1
    55    29    31    1
    56    20    19    2
    57    28    25    1
    58    27    26    2
    59   108   107    2
    60    13    10    1
    61   107   106    1
    62    24    25    1
    63    25    26    1
    64    19    18    1
    65    10    11    1
    66    10     9    1
    67   106   105    1
    68    17    11   am
    69    17    18    1
    70    77    76    1
    71     8     6    1
    72    11    12    2
    73   105    99   am
    74    18    21    1
    75   103   102    1
    76   101   102    1
    77   101    98    1
    78   104   102    1
    79     6     5    1
    80    99    98    1
    81    99   100    2
    82     4     3    2
    83    98    97    1
    84    23    21    1
    85    21    22    1
    86    75    76    1
    87    75    74    1
    88    74    71    1
    89    44    43    1
    90     1     2    1
    91     3     2    1
    92     5     2    1
    93     5     7    1
    94    83    82    1
    95    73    72    2
    96    96    95    1
    97    43    45    1
    98    43    42    1
    99    60    58   ar
   100    60    61   ar
   101    71    72    1
   102    71    70    1
   103    95    93   ar
   104    95    94   ar
   105    93    91   ar
   106    66    65    2
   107    72    78   am
   108    62    61    1
   109    58    56   ar
   110    37    36    1
   111    94    92   ar
   112    42    39    1
   113    61    59   ar
   114    91    90   ar
   115    82    84    1
   116    82    79    1
   117    68    67    1
   118    68    69    1
   119    65    70   am
   120    65    64    1
   121    36    33    1
   122    78    79    1
   123    92    90   ar
   124    38    39    1
   125    38    34   am
   126    90    89    1
   127    33    34    1
   128    33    32    1
   129    56    55    1
   130    56    57   ar
   131    79    80    1
   132    67    64    1
   133    69    63    1
   134    59    57   ar
   135    55    52    1
   136    39    40    1
   137    89    86    1
   138    34    35    2
   139    64    63    1
   140    63    53   am
   141    50    47    1
   142    46    40   am
   143    46    47    1
   144    40    41    2
   145    52    53    1
   146    52    51    1
   147    53    54    2
   148    80    81    2
   149    47    48    1
   150    86    85    1
   151    86    87    1
   152    87    88    2
   153    48    49    2
