@<TRIPOS>MOLECULE
tmp/2iluA00.pdb
 223 218 0 0 0
SMALL
GASTEIGER

@<TRIPOS>ATOM
      1  N         36.0630   32.1840   71.5660 N.3   147  ILE147     -0.1231
      2  CA        35.8620   30.9820   70.7830 C.3   147  ILE147      0.1692
      3  C         36.3500   31.2360   69.3480 C.2   147  ILE147      0.2592
      4  O         35.6410   31.8960   68.5990 O.2   147  ILE147     -0.2718
      5  CB        34.3760   30.6090   70.7500 C.3   147  ILE147      0.0266
      6  CG1       33.8170   30.5560   72.1750 C.3   147  ILE147      0.0019
      7  CG2       34.2010   29.2840   70.0600 C.3   147  ILE147      0.0020
      8  CD1       32.3250   30.3050   72.2310 C.3   147  ILE147      0.0001
      9  N         37.5240   30.7270   68.9860 N.am  148  LEU148     -0.1966
     10  CA        38.1010   30.9940   67.6710 C.3   148  LEU148      0.1713
     11  C         37.8350   29.9840   66.5530 C.2   148  LEU148      0.2458
     12  O         37.5860   28.8220   66.8350 O.2   148  LEU148     -0.2730
     13  CB        39.6060   31.1530   67.8150 C.3   148  LEU148      0.0310
     14  CG        40.0720   31.7220   69.1530 C.3   148  LEU148      0.0022
     15  CD1       41.5960   31.7390   69.1640 C.3   148  LEU148      0.0001
     16  CD2       39.4930   33.1210   69.3790 C.3   148  LEU148      0.0001
     17  N         37.8960   30.4290   65.2900 N.am  149  PRO149     -0.2716
     18  CA        37.6840   29.6250   64.0880 C.3   149  PRO149      0.1536
     19  C         39.0750   29.1840   63.5360 C.2   149  PRO149      0.2599
     20  O         40.0810   29.5590   64.1350 O.2   149  PRO149     -0.2715
     21  CB        36.9940   30.6050   63.1690 C.3   149  PRO149      0.0310
     22  CG        37.7730   31.8370   63.4330 C.3   149  PRO149      0.0237
     23  CD        37.8930   31.8600   64.9460 C.3   149  PRO149      0.0939
     24  N         39.1280   28.4220   62.4470 N.am  150  TRP150     -0.1960
     25  CA        40.4240   27.9930   61.9030 C.3   150  TRP150      0.1771
     26  C         41.1320   29.0550   61.0280 C.2   150  TRP150      0.2619
     27  O         42.3410   28.9470   60.8140 O.2   150  TRP150     -0.2715
     28  CB        40.2820   26.6950   61.0950 C.3   150  TRP150      0.0590
     29  CG        39.1600   26.7300   60.1310 C.ar  150  TRP150      0.0006
     30  CD1       37.8910   26.3070   60.3560 C.ar  150  TRP150      0.0946
     31  CD2       39.1610   27.3350   58.8330 C.ar  150  TRP150      0.0152
     32  NE1       37.0870   26.6190   59.2880 N.ar  150  TRP150     -0.2442
     33  CE2       37.8390   27.2530   58.3360 C.ar  150  TRP150      0.0810
     34  CE3       40.1470   27.9450   58.0430 C.ar  150  TRP150      0.0012
     35  CZ2       37.4710   27.7600   57.0830 C.ar  150  TRP150      0.0191
     36  CZ3       39.7840   28.4510   56.7950 C.ar  150  TRP150      0.0001
     37  CH2       38.4540   28.3550   56.3300 C.ar  150  TRP150      0.0015
     38  N         40.3790   30.0360   60.5360 N.am  151  ASN151     -0.1972
     39  CA        40.9500   31.0940   59.7180 C.3   151  ASN151      0.1688
     40  C         41.6210   32.1760   60.5930 C.2   151  ASN151      0.2292
     41  O         40.9730   32.6620   61.5240 O.2   151  ASN151     -0.2864
     42  CB        39.8630   31.7120   58.8390 C.3   151  ASN151      0.1181
     43  CG        40.4000   32.1770   57.4990 C.2   151  ASN151      0.2629
     44  OD1       40.9990   31.3940   56.7540 O.2   151  ASN151     -0.2716
     45  ND2       40.1930   33.4540   57.1830 N.am  151  ASN151     -0.0877
     46  N         39.1040   29.1770   73.5630 N.3   174  LYS174     -0.1231
     47  CA        38.9860   27.8310   73.0210 C.3   174  LYS174      0.1678
     48  C         39.3590   27.8800   71.5510 C.2   174  LYS174      0.2434
     49  O         38.5310   28.2670   70.7400 O.2   174  LYS174     -0.2733
     50  CB        37.5750   27.2510   73.1230 C.3   174  LYS174      0.0284
     51  CG        37.5490   25.7780   72.6600 C.3   174  LYS174      0.0035
     52  CD        36.1560   25.2410   72.3400 C.3   174  LYS174      0.0206
     53  CE        35.6880   25.7090   70.9820 C.3   174  LYS174      0.1093
     54  NZ        36.6480   25.2820   69.9360 N.3   174  LYS174     -0.1314
     55  N         40.5940   27.5150   71.2070 N.am  175  PRO175     -0.2718
     56  CA        40.9840   27.5590   69.7990 C.3   175  PRO175      0.1535
     57  C         40.0790   26.6540   68.9700 C.2   175  PRO175      0.2599
     58  O         39.2580   25.9410   69.5420 O.2   175  PRO175     -0.2715
     59  CB        42.4180   27.0560   69.8280 C.3   175  PRO175      0.0310
     60  CG        42.3800   26.0610   70.9280 C.3   175  PRO175      0.0237
     61  CD        41.5770   26.7670   72.0040 C.3   175  PRO175      0.0939
     62  N         40.2060   26.7140   67.6530 N.am  176  SER176     -0.1936
     63  CA        39.4130   25.8430   66.8200 C.3   176  SER176      0.2055
     64  C         39.9290   24.4060   66.8730 C.2   176  SER176      0.2643
     65  O         41.1420   24.1890   66.9400 O.2   176  SER176     -0.2714
     66  CB        39.4310   26.3100   65.3680 C.3   176  SER176      0.2130
     67  OG        39.0360   25.2570   64.4990 O.3   176  SER176     -0.2179
     68  N         39.0020   23.4660   66.8690 N.am  177  GLU177     -0.1963
     69  CA        39.2920   22.0450   66.8890 C.3   177  GLU177      0.1733
     70  C         40.2710   21.6000   65.7700 C.2   177  GLU177      0.2616
     71  O         41.0080   20.6390   65.9670 O.2   177  GLU177     -0.2715
     72  CB        37.9560   21.3230   66.7630 C.3   177  GLU177      0.0429
     73  CG        37.9910   19.8620   66.5020 C.3   177  GLU177      0.1163
     74  CD        36.6460   19.3860   66.0070 C.2   177  GLU177      0.3649
     75  OE1       35.6310   19.6570   66.6930 O.co2 177  GLU177     -0.2457
     76  OE2       36.6030   18.7530   64.9280 O.co2 177  GLU177     -0.2457
     77  N         40.2660   22.3060   64.6410 N.am  178  PHE178     -0.1974
     78  CA        41.1350   22.0000   63.5060 C.3   178  PHE178      0.1639
     79  C         42.4810   22.7330   63.5280 C.2   178  PHE178      0.2290
     80  O         43.4010   22.3090   62.8380 O.2   178  PHE178     -0.2864
     81  CB        40.4550   22.3770   62.1930 C.3   178  PHE178      0.0560
     82  CG        39.0460   21.9240   62.0890 C.ar  178  PHE178     -0.0200
     83  CD1       38.7420   20.5690   62.0100 C.ar  178  PHE178     -0.0042
     84  CD2       38.0060   22.8540   62.1080 C.ar  178  PHE178     -0.0042
     85  CE1       37.4100   20.1410   61.9550 C.ar  178  PHE178     -0.0003
     86  CE2       36.6790   22.4430   62.0530 C.ar  178  PHE178     -0.0003
     87  CZ        36.3750   21.0860   61.9780 C.ar  178  PHE178     -0.0000
     88  N         38.9600   21.4020   72.8860 N.3   205  GLY205     -0.1210
     89  CA        37.7570   20.6010   72.7530 C.3   205  GLY205      0.1956
     90  C         36.9000   21.0650   71.5910 C.2   205  GLY205      0.2612
     91  O         37.3480   21.8330   70.7400 O.2   205  GLY205     -0.2717
     92  N         35.6640   20.5910   71.5500 N.am  206  ARG206     -0.1965
     93  CA        34.7400   20.9610   70.4870 C.3   206  ARG206      0.1729
     94  C         33.8250   22.1480   70.8470 C.2   206  ARG206      0.2617
     95  O         33.6390   22.4140   72.0330 O.2   206  ARG206     -0.2715
     96  CB        33.8940   19.7430   70.0920 C.3   206  ARG206      0.0348
     97  CG        34.7140   18.6400   69.4270 C.3   206  ARG206      0.0492
     98  CD        33.9090   17.3810   69.0890 C.3   206  ARG206      0.2205
     99  NE        33.4130   16.7050   70.2830 N.pl3 206  ARG206     -0.0865
    100  CZ        32.1520   16.7590   70.7060 C.cat 206  ARG206      0.5346
    101  NH1       31.2480   17.4570   70.0240 N.pl3 206  ARG206      0.1354
    102  NH2       31.7990   16.1230   71.8180 N.pl3 206  ARG206      0.1354
    103  N         33.2790   22.8310   69.8430 N.am  207  GLY207     -0.1940
    104  CA        32.4050   23.9640   70.0920 C.3   207  GLY207      0.2014
    105  C         31.1450   23.5900   70.8470 C.2   207  GLY207      0.2638
    106  O         30.7380   24.2930   71.7790 O.2   207  GLY207     -0.2714
    107  N         30.5280   22.4780   70.4530 N.am  208  GLU208     -0.1977
    108  CA        29.3040   22.0190   71.1080 C.3   208  GLU208      0.1602
    109  C         29.4990   21.6610   72.5920 C.2   208  GLU208      0.2287
    110  O         28.5390   21.6860   73.3500 O.2   208  GLU208     -0.2864
    111  CB        28.7260   20.8080   70.3720 C.3   208  GLU208      0.0415
    112  CG        28.5410   21.0130   68.8730 C.3   208  GLU208      0.1163
    113  CD        29.8660   21.1510   68.1390 C.2   208  GLU208      0.3649
    114  OE1       30.7450   20.2860   68.3320 O.co2 208  GLU208     -0.2457
    115  OE2       30.0330   22.1160   67.3680 O.co2 208  GLU208     -0.2457
    116  N         32.7570   24.9690   73.8790 N.3   211  GLY211     -0.1210
    117  CA        32.2800   26.2590   73.4140 C.3   211  GLY211      0.1956
    118  C         30.9840   26.6560   74.0940 C.2   211  GLY211      0.2611
    119  O         30.8360   27.7830   74.5600 O.2   211  GLY211     -0.2717
    120  N         30.0290   25.7350   74.1470 N.am  212  GLN212     -0.1979
    121  CA        28.7680   26.0350   74.8060 C.3   212  GLN212      0.1601
    122  C         28.9620   26.4240   76.2660 C.2   212  GLN212      0.2287
    123  O         28.2280   27.2710   76.7700 O.2   212  GLN212     -0.2864
    124  CB        27.8140   24.8500   74.7040 C.3   212  GLN212      0.0394
    125  CG        27.1460   24.7500   73.3450 C.3   212  GLN212      0.0908
    126  CD        26.2400   25.9400   73.0490 C.2   212  GLN212      0.2608
    127  OE1       25.2480   26.1680   73.7410 O.2   212  GLN212     -0.2717
    128  NE2       26.5820   26.7040   72.0220 N.am  212  GLN212     -0.0878
    129  N         33.1870   35.5380   70.0010 N.3   225  MET225     -0.1230
    130  CA        33.3940   34.4580   69.0580 C.3   225  MET225      0.1702
    131  C         33.4630   34.8870   67.5890 C.2   225  MET225      0.2593
    132  O         32.7980   35.8410   67.1930 O.2   225  MET225     -0.2718
    133  CB        32.3010   33.4000   69.2380 C.3   225  MET225      0.0401
    134  CG        32.2720   32.3180   68.1660 C.3   225  MET225      0.0596
    135  SD        31.2440   32.7720   66.7600 S.3   225  MET225     -0.1393
    136  CE        31.6290   31.5190   65.6040 C.3   225  MET225      0.0692
    137  N         34.2780   34.1860   66.8170 N.am  226  THR226     -0.1939
    138  CA        34.4230   34.4740   65.4070 C.3   226  THR226      0.2028
    139  C         34.2320   33.2130   64.5450 C.2   226  THR226      0.2643
    140  O         34.8740   32.2070   64.8320 O.2   226  THR226     -0.2714
    141  CB        35.7960   35.0890   65.1200 C.3   226  THR226      0.1808
    142  OG1       35.9440   36.3030   65.8720 O.3   226  THR226     -0.2208
    143  CG2       35.9350   35.3860   63.6350 C.3   226  THR226      0.0379
    144  N         33.3500   33.2720   63.5480 N.am  227  GLY227     -0.1939
    145  CA        33.1090   32.1120   62.7120 C.3   227  GLY227      0.2014
    146  C         31.8820   32.2110   61.8230 C.2   227  GLY227      0.2639
    147  O         31.6630   33.2280   61.1630 O.2   227  GLY227     -0.2714
    148  N         31.0780   31.1510   61.8090 N.am  228  SER228     -0.1949
    149  CA        29.8760   31.0920   60.9760 C.3   228  SER228      0.1924
    150  C         28.5930   31.6240   61.6370 C.2   228  SER228      0.2314
    151  O         28.4580   31.5040   62.8450 O.2   228  SER228     -0.2863
    152  CB        29.6100   29.6460   60.5490 C.3   228  SER228      0.2116
    153  OG        28.9930   28.9190   61.6080 O.3   228  SER228     -0.2180
    154  N         27.0040   29.1200   64.1770 N.3   231  ALA231     -0.1245
    155  CA        27.5890   29.0390   65.5040 C.3   231  ALA231      0.1562
    156  C         27.2720   30.2980   66.3350 C.2   231  ALA231      0.2260
    157  O         27.0420   30.1980   67.5420 O.2   231  ALA231     -0.2867
    158  CB        29.1010   28.8480   65.3940 C.3   231  ALA231      0.0290
    159  N         23.9530   29.8540   67.9000 N.3   234  LYS234     -0.1231
    160  CA        23.9240   28.9690   69.0490 C.3   234  LYS234      0.1693
    161  C         24.5970   29.6110   70.2560 C.2   234  LYS234      0.2591
    162  O         24.1540   29.4040   71.3880 O.2   234  LYS234     -0.2718
    163  CB        24.6000   27.6400   68.7150 C.3   234  LYS234      0.0285
    164  CG        23.8880   26.8630   67.6220 C.3   234  LYS234      0.0035
    165  CD        24.6100   25.5650   67.2760 C.3   234  LYS234      0.0206
    166  CE        23.8590   24.7650   66.2130 C.3   234  LYS234      0.1093
    167  NZ        23.7140   25.5310   64.9490 N.3   234  LYS234     -0.1314
    168  N         25.6470   30.3830   70.0060 N.am  235  ILE235     -0.1980
    169  CA        26.3290   31.0680   71.0830 C.3   235  ILE235      0.1595
    170  C         25.4680   32.1890   71.6870 C.2   235  ILE235      0.2287
    171  O         25.3710   32.2730   72.9110 O.2   235  ILE235     -0.2864
    172  CB        27.6690   31.6470   70.6000 C.3   235  ILE235      0.0276
    173  CG1       28.6180   30.4940   70.2680 C.3   235  ILE235      0.0022
    174  CG2       28.2690   32.5630   71.6620 C.3   235  ILE235      0.0022
    175  CD1       29.9250   30.9200   69.6740 C.3   235  ILE235      0.0001
    176  N         40.5640   23.8020   54.6400 N.3   326  ILE326     -0.1231
    177  CA        40.7000   23.2860   55.9960 C.3   326  ILE326      0.1692
    178  C         40.3020   21.7980   56.2190 C.2   326  ILE326      0.2592
    179  O         40.8460   21.1660   57.1300 O.2   326  ILE326     -0.2718
    180  CB        39.9170   24.1820   56.9910 C.3   326  ILE326      0.0266
    181  CG1       40.3600   23.8910   58.4280 C.3   326  ILE326      0.0019
    182  CG2       38.4230   23.9780   56.8040 C.3   326  ILE326      0.0020
    183  CD1       41.8140   24.2290   58.7170 C.3   326  ILE326      0.0001
    184  N         39.3910   21.2590   55.4150 N.am  327  ASN327     -0.1974
    185  CA        38.9890   19.8680   55.5960 C.3   327  ASN327      0.1688
    186  C         37.9980   19.3230   54.5620 C.2   327  ASN327      0.2292
    187  O         37.4870   20.0860   53.7460 O.2   327  ASN327     -0.2864
    188  CB        38.3830   19.6790   56.9820 C.3   327  ASN327      0.1181
    189  CG        37.2310   20.6270   57.2410 C.2   327  ASN327      0.2629
    190  OD1       36.2560   20.6670   56.4810 O.2   327  ASN327     -0.2716
    191  ND2       37.3350   21.4010   58.3200 N.am  327  ASN327     -0.0877
    192  N         34.7920   18.3490   54.7190 N.3   329  ALA329     -0.1231
    193  CA        33.5070   19.0280   54.6880 C.3   329  ALA329      0.1694
    194  C         33.5400   20.3250   53.8530 C.2   329  ALA329      0.2591
    195  O         32.6730   20.5230   53.0000 O.2   329  ALA329     -0.2718
    196  CB        33.0550   19.3350   56.1060 C.3   329  ALA329      0.0304
    197  N         34.5310   21.1740   54.1100 N.am  330  ALA330     -0.1980
    198  CA        34.6700   22.4200   53.3760 C.3   330  ALA330      0.1597
    199  C         34.8000   22.1890   51.8550 C.2   330  ALA330      0.2287
    200  O         34.1230   22.8680   51.0820 O.2   330  ALA330     -0.2864
    201  CB        35.8760   23.1940   53.8990 C.3   330  ALA330      0.0319
    202  N         31.2850   20.9610   50.3210 N.3   333  ARG333     -0.1245
    203  CA        30.3450   22.0540   50.1820 C.3   333  ARG333      0.1563
    204  C         30.6900   22.9630   48.9880 C.2   333  ARG333      0.2260
    205  O         29.7830   23.3770   48.2680 O.2   333  ARG333     -0.2867
    206  CB        30.2750   22.8720   51.4780 C.3   333  ARG333      0.0307
    207  CG        29.3960   22.2340   52.5510 C.3   333  ARG333      0.0489
    208  CD        29.0960   23.2000   53.6930 C.3   333  ARG333      0.2205
    209  NE        30.1490   23.2400   54.7060 N.pl3 333  ARG333     -0.0865
    210  CZ        30.3330   22.3060   55.6380 C.cat 333  ARG333      0.5346
    211  NH1       29.5310   21.2490   55.6940 N.pl3 333  ARG333      0.1354
    212  NH2       31.3170   22.4320   56.5190 N.pl3 333  ARG333      0.1354
    213  N         33.0440   29.6870   50.9720 N.3   382  PHE382     -0.1241
    214  CA        34.1910   28.9110   51.4480 C.3   382  PHE382      0.1605
    215  C         35.3700   28.8650   50.4550 C.2   382  PHE382      0.2264
    216  O         36.3450   29.5990   50.6270 O.2   382  PHE382     -0.2867
    217  CB        33.7810   27.4650   51.7520 C.3   382  PHE382      0.0534
    218  CG        33.1730   27.2700   53.1090 C.ar  382  PHE382     -0.0203
    219  CD1       32.4280   26.1240   53.3830 C.ar  382  PHE382     -0.0042
    220  CD2       33.3550   28.2140   54.1200 C.ar  382  PHE382     -0.0042
    221  CE1       31.8710   25.9170   54.6440 C.ar  382  PHE382     -0.0003
    222  CE2       32.8030   28.0180   55.3860 C.ar  382  PHE382     -0.0003
    223  CZ        32.0580   26.8660   55.6480 C.ar  382  PHE382     -0.0000
@<TRIPOS>BOND
     1   205   204    2
     2   204   203    1
     3   203   202    1
     4   203   206    1
     5   215   216    2
     6   215   214    1
     7   213   214    1
     8   200   199    2
     9   214   217    1
    10   206   207    1
    11   217   218    1
    12   199   198    1
    13   207   208    1
    14   195   194    2
    15   218   219   ar
    16   218   220   ar
    17   198   201    1
    18   198   197    1
    19   219   221   ar
    20   208   209    1
    21   187   186    2
    22   194   197   am
    23   194   193    1
    24   220   222   ar
    25   186   185    1
    26   176   177    1
    27   221   223   ar
    28   193   192    1
    29   193   196    1
    30   209   210    2
    31   222   223   ar
    32   184   185    1
    33   184   178   am
    34   185   188    1
    35   210   211    1
    36   210   212    1
    37   177   178    1
    38   177   180    1
    39   178   179    2
    40    37    36   ar
    41    37    35   ar
    42   190   189    2
    43    44    43    2
    44    36    34   ar
    45   182   180    1
    46   188   189    1
    47   180   181    1
    48    35    33   ar
    49    45    43   am
    50   189   191   am
    51    43    42    1
    52    34    31   ar
    53    33    31   ar
    54    33    32   ar
    55   181   183    1
    56    31    29   ar
    57    42    39    1
    58    32    30   ar
    59    39    38    1
    60    39    40    1
    61    29    30   ar
    62    29    28    1
    63    38    26   am
    64   152   149    1
    65   152   153    1
    66    40    41    2
    67    27    26    2
    68   149   150    1
    69   149   148    1
    70    26    25    1
    71    28    25    1
    72   147   146    2
    73   150   151    2
    74   148   146   am
    75   146   145    1
    76    25    24    1
    77    85    87   ar
    78    85    83   ar
    79    87    86   ar
    80    83    82   ar
    81    86    84   ar
    82    82    84   ar
    83    82    81    1
    84    81    78    1
    85    24    19   am
    86   145   144    1
    87    80    79    2
    88    21    22    1
    89    21    18    1
    90    22    23    1
    91    78    79    1
    92    78    77    1
    93    19    18    1
    94    19    20    2
    95   144   139   am
    96   143   141    1
    97    18    17    1
    98   154   155    1
    99    67    66    1
   100   139   140    2
   101   139   138    1
   102    77    70   am
   103    76    74   ar
   104    23    17    1
   105   167   166    1
   106   141   138    1
   107   141   142    1
   108    17    11   am
   109    66    63    1
   110   158   155    1
   111   138   137    1
   112   155   156    1
   113   136   135    1
   114    70    71    2
   115    70    69    1
   116    74    73    1
   117    74    75   ar
   118   166   165    1
   119   156   157    2
   120    73    72    1
   121    11    12    2
   122    11    10    1
   123   135   134    1
   124    72    69    1
   125   137   131   am
   126    63    64    1
   127    63    62    1
   128    68    64   am
   129    68    69    1
   130    64    65    2
   131   132   131    2
   132   165   164    1
   133   115   113   ar
   134   131   130    1
   135   164   163    1
   136    62    57   am
   137    10    13    1
   138    10     9    1
   139    13    14    1
   140   159   160    1
   141   113   114   ar
   142   113   112    1
   143   134   133    1
   144     4     3    2
   145   163   160    1
   146   112   111    1
   147    57    58    2
   148    57    56    1
   149     9     3   am
   150   160   161    1
   151   130   133    1
   152   130   129    1
   153    98    97    1
   154    98    99    1
   155    14    15    1
   156    14    16    1
   157     3     2    1
   158    97    96    1
   159   175   173    1
   160    56    59    1
   161    56    55    1
   162    59    60    1
   163   103   104    1
   164   103    94   am
   165    54    53    1
   166   168   161   am
   167   168   169    1
   168   101   100    1
   169     7     5    1
   170   104   105    1
   171    96    93    1
   172   161   162    2
   173   173   172    1
   174    99   100    2
   175   111   108    1
   176   107   105   am
   177   107   108    1
   178    93    94    1
   179    93    92    1
   180   172   169    1
   181   172   174    1
   182   100   102    1
   183    49    48    2
   184    91    90    2
   185     5     2    1
   186     5     6    1
   187     2     1    1
   188   105   106    2
   189    94    95    2
   190    60    61    1
   191    53    52    1
   192   169   170    1
   193   108   109    1
   194    55    48   am
   195    55    61    1
   196    92    90   am
   197    48    47    1
   198    90    89    1
   199   170   171    2
   200   128   126   am
   201     6     8    1
   202    52    51    1
   203   109   110    2
   204    51    50    1
   205    89    88    1
   206    47    50    1
   207    47    46    1
   208   126   125    1
   209   126   127    2
   210   125   124    1
   211   117   116    1
   212   117   118    1
   213   118   120   am
   214   118   119    2
   215   120   121    1
   216   124   121    1
   217   121   122    1
   218   122   123    2
