@<TRIPOS>MOLECULE
tmp/2im3A00.pdb
 168 158 0 0 0
SMALL
GASTEIGER

@<TRIPOS>ATOM
      1  N        220.8680  -69.0620  -12.4400 N.3    61  LYS61      -0.1245
      2  CA       220.3150  -68.0970  -11.5050 C.3    61  LYS61       0.1561
      3  C        219.7490  -66.8940  -12.2520 C.2    61  LYS61       0.2260
      4  O        218.9410  -66.1330  -11.7120 O.2    61  LYS61      -0.2867
      5  CB       221.3770  -67.6350  -10.5040 C.3    61  LYS61       0.0271
      6  CG       222.5790  -66.8960  -11.0850 C.3    61  LYS61       0.0035
      7  CD       223.3810  -66.2190   -9.9620 C.3    61  LYS61       0.0206
      8  CE       224.6920  -65.5960  -10.4360 C.3    61  LYS61       0.1093
      9  NZ       225.3920  -64.8130   -9.3550 N.3    61  LYS61      -0.1314
     10  N        232.2380  -69.2000   -5.4000 N.3   158  LYS158     -0.1245
     11  CA       232.4670  -69.0550   -3.9630 C.3   158  LYS158      0.1561
     12  C        232.7990  -70.3640   -3.2500 C.2   158  LYS158      0.2260
     13  O        232.0690  -71.3570   -3.3700 O.2   158  LYS158     -0.2867
     14  CB       231.2510  -68.3920   -3.3060 C.3   158  LYS158      0.0271
     15  CG       231.4720  -67.9440   -1.8680 C.3   158  LYS158      0.0035
     16  CD       230.3350  -67.0510   -1.4100 C.3   158  LYS158      0.0206
     17  CE       230.5620  -66.5210   -0.0040 C.3   158  LYS158      0.1093
     18  NZ       230.3550  -67.5800    1.0260 N.3   158  LYS158     -0.1314
     19  N        228.0360  -76.2410    1.3420 N.3   162  ARG162     -0.1245
     20  CA       226.7350  -76.3120    0.6760 C.3   162  ARG162      0.1563
     21  C        226.0990  -77.6710    0.9320 C.2   162  ARG162      0.2260
     22  O        226.8050  -78.6600    1.1580 O.2   162  ARG162     -0.2867
     23  CB       226.9070  -76.1220   -0.8300 C.3   162  ARG162      0.0307
     24  CG       227.7300  -74.9070   -1.2130 C.3   162  ARG162      0.0489
     25  CD       226.9360  -73.6230   -1.0740 C.3   162  ARG162      0.2205
     26  NE       225.7840  -73.6350   -1.9660 N.pl3 162  ARG162     -0.0865
     27  CZ       224.7910  -72.7580   -1.9260 C.cat 162  ARG162      0.5346
     28  NH1      224.7920  -71.7770   -1.0290 N.pl3 162  ARG162      0.1354
     29  NH2      223.7940  -72.8630   -2.7900 N.pl3 162  ARG162      0.1354
     30  N        222.7290  -79.2440   -3.3350 N.3   166  LYS166     -0.1245
     31  CA       223.3180  -78.1140   -4.0230 C.3   166  LYS166      0.1561
     32  C        224.7370  -78.4060   -4.5110 C.2   166  LYS166      0.2260
     33  O        225.3980  -77.5460   -5.0980 O.2   166  LYS166     -0.2867
     34  CB       223.2800  -76.8810   -3.1240 C.3   166  LYS166      0.0271
     35  CG       221.8600  -76.4650   -2.8160 C.3   166  LYS166      0.0035
     36  CD       221.7660  -75.0400   -2.3450 C.3   166  LYS166      0.0206
     37  CE       220.3280  -74.5590   -2.4480 C.3   166  LYS166      0.1093
     38  NZ       220.1640  -73.1180   -2.0910 N.3   166  LYS166     -0.1314
     39  N        224.8590  -76.2790   -7.8470 N.3   171  LYS171     -0.1245
     40  CA       224.3240  -74.9920   -7.4240 C.3   171  LYS171      0.1561
     41  C        225.3270  -74.2530   -6.5400 C.2   171  LYS171      0.2260
     42  O        225.0850  -74.0330   -5.3530 O.2   171  LYS171     -0.2867
     43  CB       223.0230  -75.2000   -6.6540 C.3   171  LYS171      0.0271
     44  CG       221.8460  -75.5810   -7.5160 C.3   171  LYS171      0.0035
     45  CD       221.4390  -74.4160   -8.4060 C.3   171  LYS171      0.0206
     46  CE       220.2120  -74.7490   -9.2430 C.3   171  LYS171      0.1093
     47  NZ       219.7750  -73.5670  -10.0350 N.3   171  LYS171     -0.1314
     48  N        227.4610  -70.8700   -5.5160 N.3   173  ARG173     -0.1231
     49  CA       227.2330  -69.4360   -5.6340 C.3   173  ARG173      0.1694
     50  C        228.4500  -68.7600   -6.2320 C.2   173  ARG173      0.2592
     51  O        229.5740  -69.2270   -6.0490 O.2   173  ARG173     -0.2718
     52  CB       226.8930  -68.8410   -4.2690 C.3   173  ARG173      0.0321
     53  CG       225.7730  -69.6110   -3.5800 C.3   173  ARG173      0.0489
     54  CD       225.0970  -68.8140   -2.4870 C.3   173  ARG173      0.2205
     55  NE       226.0670  -68.1250   -1.6610 N.pl3 173  ARG173     -0.0865
     56  CZ       225.7930  -67.6050   -0.4730 C.cat 173  ARG173      0.5346
     57  NH1      224.5660  -67.7040    0.0250 N.pl3 173  ARG173      0.1354
     58  NH2      226.7500  -66.9880    0.2150 N.pl3 173  ARG173      0.1354
     59  N        228.2190  -67.6680   -6.9550 N.am  174  LEU174     -0.1966
     60  CA       229.2960  -66.9370   -7.6130 C.3   174  LEU174      0.1728
     61  C        229.5530  -65.5900   -6.9750 C.2   174  LEU174      0.2616
     62  O        228.6470  -64.9590   -6.4500 O.2   174  LEU174     -0.2715
     63  CB       228.9680  -66.7240   -9.0970 C.3   174  LEU174      0.0311
     64  CG       228.5490  -67.9440   -9.9240 C.3   174  LEU174      0.0022
     65  CD1      228.2090  -67.5040  -11.3300 C.3   174  LEU174      0.0001
     66  CD2      229.6580  -68.9680   -9.9470 C.3   174  LEU174      0.0001
     67  N        230.8030  -65.1600   -7.0470 N.am  175  ILE175     -0.1977
     68  CA       231.2310  -63.8820   -6.5080 C.3   175  ILE175      0.1596
     69  C        231.6940  -63.0160   -7.6690 C.2   175  ILE175      0.2287
     70  O        232.7640  -63.2520   -8.2300 O.2   175  ILE175     -0.2864
     71  CB       232.4130  -64.0640   -5.5580 C.3   175  ILE175      0.0276
     72  CG1      231.9590  -64.8440   -4.3220 C.3   175  ILE175      0.0022
     73  CG2      233.0060  -62.7100   -5.2080 C.3   175  ILE175      0.0022
     74  CD1      233.1070  -65.3590   -3.4550 C.3   175  ILE175      0.0001
     75  N        211.1900  -65.4280    1.9740 N.3   231  ASP231     -0.1225
     76  CA       212.5530  -65.4050    1.4680 C.3   231  ASP231      0.1805
     77  C        212.4870  -65.4550   -0.0390 C.2   231  ASP231      0.2598
     78  O        211.5230  -65.9810   -0.6000 O.2   231  ASP231     -0.2718
     79  CB       213.3310  -66.6190    1.9810 C.3   231  ASP231      0.1424
     80  CG       212.5300  -67.4450    2.9670 C.2   231  ASP231      0.3668
     81  OD1      212.4240  -67.0410    4.1570 O.co2 231  ASP231     -0.2456
     82  OD2      211.9880  -68.4900    2.5320 O.co2 231  ASP231     -0.2456
     83  N        213.5060  -64.8960   -0.6830 N.am  232  TYR232     -0.1962
     84  CA       213.5780  -64.8960   -2.1290 C.3   232  TYR232      0.1771
     85  C        214.4530  -66.0350   -2.5960 C.2   232  TYR232      0.2620
     86  O        215.3790  -66.4520   -1.8950 O.2   232  TYR232     -0.2715
     87  CB       214.1970  -63.6110   -2.6570 C.3   232  TYR232      0.0574
     88  CG       213.4050  -62.3920   -2.3510 C.ar  232  TYR232     -0.0198
     89  CD1      213.4530  -61.8120   -1.0980 C.ar  232  TYR232     -0.0009
     90  CD2      212.5960  -61.8120   -3.3230 C.ar  232  TYR232     -0.0009
     91  CE1      212.7180  -60.6780   -0.8200 C.ar  232  TYR232      0.0417
     92  CE2      211.8500  -60.6770   -3.0530 C.ar  232  TYR232      0.0417
     93  CZ       211.9190  -60.1180   -1.8050 C.ar  232  TYR232      0.1957
     94  OH       211.2010  -58.9910   -1.5420 O.3   232  TYR232     -0.2866
     95  N        214.1510  -66.5390   -3.7840 N.am  233  THR233     -0.1937
     96  CA       214.9510  -67.5840   -4.3850 C.3   233  THR233      0.2028
     97  C        215.7210  -66.8480   -5.4670 C.2   233  THR233      0.2643
     98  O        215.1300  -66.3550   -6.4310 O.2   233  THR233     -0.2714
     99  CB       214.0870  -68.6720   -5.0420 C.3   233  THR233      0.1808
    100  OG1      213.3150  -69.3470   -4.0390 O.3   233  THR233     -0.2208
    101  CG2      214.9720  -69.6700   -5.7580 C.3   233  THR233      0.0379
    102  N        217.0320  -66.7410   -5.2900 N.am  234  GLY234     -0.1939
    103  CA       217.8510  -66.0610   -6.2710 C.3   234  GLY234      0.2014
    104  C        217.4370  -64.6240   -6.4700 C.2   234  GLY234      0.2639
    105  O        217.2640  -64.1770   -7.5940 O.2   234  GLY234     -0.2714
    106  N        217.2670  -63.9040   -5.3700 N.am  235  TYR235     -0.1959
    107  CA       216.8830  -62.4990   -5.4090 C.3   235  TYR235      0.1771
    108  C        217.7990  -61.7420   -6.3790 C.2   235  TYR235      0.2620
    109  O        217.3970  -61.3810   -7.4860 O.2   235  TYR235     -0.2715
    110  CB       216.9950  -61.9230   -3.9900 C.3   235  TYR235      0.0574
    111  CG       216.7300  -60.4370   -3.8180 C.ar  235  TYR235     -0.0198
    112  CD1      215.4330  -59.9490   -3.6290 C.ar  235  TYR235     -0.0009
    113  CD2      217.7870  -59.5260   -3.7720 C.ar  235  TYR235     -0.0009
    114  CE1      215.1980  -58.5930   -3.3850 C.ar  235  TYR235      0.0417
    115  CE2      217.5660  -58.1680   -3.5310 C.ar  235  TYR235      0.0417
    116  CZ       216.2680  -57.7040   -3.3280 C.ar  235  TYR235      0.1957
    117  OH       216.0590  -56.3710   -2.9920 O.3   235  TYR235     -0.2866
    118  N        219.0370  -61.5190   -5.9600 N.am  236  ASP236     -0.1957
    119  CA       220.0160  -60.7970   -6.7670 C.3   236  ASP236      0.1840
    120  C        219.8880  -60.9610   -8.2800 C.2   236  ASP236      0.2621
    121  O        219.7080  -59.9840   -9.0110 O.2   236  ASP236     -0.2715
    122  CB       221.4250  -61.2000   -6.3530 C.3   236  ASP236      0.1450
    123  CG       221.8590  -60.5400   -5.0730 C.2   236  ASP236      0.3671
    124  OD1      221.1380  -60.6570   -4.0670 O.co2 236  ASP236     -0.2456
    125  OD2      222.9290  -59.9020   -5.0700 O.co2 236  ASP236     -0.2456
    126  N        219.9890  -62.1990   -8.7440 N.am  237  ALA237     -0.1977
    127  CA       219.9110  -62.4760  -10.1680 C.3   237  ALA237      0.1597
    128  C        218.5430  -62.2130  -10.7950 C.2   237  ALA237      0.2287
    129  O        218.4580  -61.8510  -11.9660 O.2   237  ALA237     -0.2864
    130  CB       220.3430  -63.9250  -10.4400 C.3   237  ALA237      0.0319
    131  N        227.1980  -59.6630   -7.1100 N.3   285  SER285     -0.1217
    132  CA       227.4740  -59.9990   -5.7080 C.3   285  SER285      0.1889
    133  C        228.6650  -59.3330   -4.9930 C.2   285  SER285      0.2288
    134  O        228.5920  -59.0550   -3.7950 O.2   285  SER285     -0.2866
    135  CB       227.6420  -61.5090   -5.5780 C.3   285  SER285      0.2089
    136  OG       228.8780  -61.9180   -6.1450 O.3   285  SER285     -0.2183
    137  N        220.8270  -53.4980   -2.5370 N.3   293  ASN293     -0.1240
    138  CA       219.9490  -54.6550   -2.5470 C.3   293  ASN293      0.1653
    139  C        218.7910  -54.4260   -1.5470 C.2   293  ASN293      0.2266
    140  O        217.6330  -54.7710   -1.8140 O.2   293  ASN293     -0.2867
    141  CB       220.7480  -55.8960   -2.1480 C.3   293  ASN293      0.1155
    142  CG       220.8880  -56.8840   -3.2740 C.2   293  ASN293      0.2627
    143  OD1      220.9400  -56.5140   -4.4350 O.2   293  ASN293     -0.2716
    144  ND2      220.9670  -58.1560   -2.9310 N.am  293  ASN293     -0.0877
    145  N        218.2870  -59.7530    0.4850 N.3   324  ASP324     -0.1239
    146  CA       217.0460  -60.4570    0.1970 C.3   324  ASP324      0.1674
    147  C        216.2560  -60.7270    1.4640 C.2   324  ASP324      0.2266
    148  O        215.0330  -60.8810    1.4400 O.2   324  ASP324     -0.2867
    149  CB       217.3340  -61.7720   -0.5350 C.3   324  ASP324      0.1410
    150  CG       218.1300  -62.7510    0.3010 C.2   324  ASP324      0.3668
    151  OD1      219.1320  -62.3270    0.9150 O.co2 324  ASP324     -0.2456
    152  OD2      217.7700  -63.9470    0.3300 O.co2 324  ASP324     -0.2456
    153  N        209.0010  -66.9790   -1.2810 N.3   351  THR351     -0.1218
    154  CA       208.4880  -68.2000   -0.7040 C.3   351  THR351      0.1862
    155  C        208.3450  -68.0970    0.8100 C.2   351  THR351      0.2287
    156  O        208.9230  -67.2180    1.4490 O.2   351  THR351     -0.2866
    157  CB       209.4100  -69.3980   -1.0270 C.3   351  THR351      0.1770
    158  OG1      210.7350  -69.1310   -0.5170 O.3   351  THR351     -0.2211
    159  CG2      209.4740  -69.6140   -2.5430 C.3   351  THR351      0.0375
    160  N        212.0550  -72.0000    4.2620 N.3   355  LYS355     -0.1245
    161  CA       211.6210  -73.1790    3.5170 C.3   355  LYS355      0.1561
    162  C        210.3210  -73.8390    3.9760 C.2   355  LYS355      0.2260
    163  O        210.1700  -75.0440    3.8400 O.2   355  LYS355     -0.2867
    164  CB       212.7330  -74.2380    3.5000 C.3   355  LYS355      0.0271
    165  CG       214.0120  -73.7960    2.7990 C.3   355  LYS355      0.0035
    166  CD       215.1210  -74.8540    2.9040 C.3   355  LYS355      0.0206
    167  CE       216.3500  -74.4550    2.0760 C.3   355  LYS355      0.1093
    168  NZ       216.0600  -74.4510    0.6060 N.3   355  LYS355     -0.1314
@<TRIPOS>BOND
     1     1     2    1
     2     3     4    2
     3     3     2    1
     4   129   128    2
     5     2     5    1
     6    65    64    1
     7     6     5    1
     8     6     7    1
     9   128   127    1
    10   130   127    1
    11     8     7    1
    12     8     9    1
    13   127   126    1
    14    47    46    1
    15    66    64    1
    16    64    63    1
    17    46    45    1
    18    63    60    1
    19   121   120    2
    20   126   120   am
    21    45    44    1
    22   120   119    1
    23    70    69    2
    24    39    40    1
    25    69    68    1
    26    60    61    1
    27    60    59    1
    28   105   104    2
    29    44    43    1
    30   109   108    2
    31    40    43    1
    32    40    41    1
    33   131   132    1
    34    67    61   am
    35    67    68    1
    36    61    62    2
    37    59    50   am
    38   119   122    1
    39   119   118    1
    40    41    42    2
    41    68    71    1
    42   104   103    1
    43   104   106   am
    44    98    97    2
    45   108   118   am
    46   108   107    1
    47   122   123    1
    48   103   102    1
    49    50    51    2
    50    50    49    1
    51   136   135    1
    52   101    99    1
    53   132   135    1
    54   132   133    1
    55    49    48    1
    56    49    52    1
    57    71    73    1
    58    71    72    1
    59    97   102   am
    60    97    96    1
    61   107   106    1
    62   107   110    1
    63    10    11    1
    64    33    32    2
    65   123   125   ar
    66   123   124   ar
    67    99    96    1
    68    99   100    1
    69   133   134    2
    70    32    31    1
    71   143   142    2
    72    96    95    1
    73    72    74    1
    74    52    53    1
    75    31    30    1
    76    31    34    1
    77   110   111    1
    78    11    14    1
    79    11    12    1
    80   111   113   ar
    81   111   112   ar
    82    95    85   am
    83   113   115   ar
    84   112   114   ar
    85    53    54    1
    86   115   116   ar
    87   114   116   ar
    88    13    12    2
    89   116   117    1
    90    90    92   ar
    91    90    88   ar
    92    14    15    1
    93   142   144   am
    94   142   141    1
    95    34    35    1
    96    92    93   ar
    97    35    36    1
    98    29    27    1
    99    87    88    1
   100    87    84    1
   101    85    84    1
   102    85    86    2
   103   138   137    1
   104   138   141    1
   105   138   139    1
   106   159   157    1
   107    54    55    1
   108    37    36    1
   109    37    38    1
   110    88    89   ar
   111    84    83    1
   112    26    27    2
   113    26    25    1
   114    27    28    1
   115    15    16    1
   116   140   139    2
   117    93    94    1
   118    93    91   ar
   119    55    56    2
   120    16    17    1
   121   153   154    1
   122    24    25    1
   123    24    23    1
   124    89    91   ar
   125   157   154    1
   126   157   158    1
   127    23    20    1
   128   154   155    1
   129    83    77   am
   130    78    77    2
   131   149   146    1
   132   149   150    1
   133    56    57    1
   134    56    58    1
   135    77    76    1
   136    17    18    1
   137   146   145    1
   138   146   147    1
   139   150   152   ar
   140   150   151   ar
   141   168   167    1
   142    20    21    1
   143    20    19    1
   144   155   156    2
   145    21    22    2
   146   148   147    2
   147    76    75    1
   148    76    79    1
   149    79    80    1
   150   167   166    1
   151    82    80   ar
   152   165   166    1
   153   165   164    1
   154    80    81   ar
   155   164   161    1
   156   161   162    1
   157   161   160    1
   158   163   162    2
