@<TRIPOS>MOLECULE
tmp/2imbB00.pdb
 131 126 0 0 0
SMALL
GASTEIGER

@<TRIPOS>ATOM
      1  N         30.8360   38.1290   16.1490 N.3   161  ILE161     -0.1231
      2  CA        30.8260   37.1200   15.0650 C.3   161  ILE161      0.1692
      3  C         31.9830   36.1020   15.1190 C.2   161  ILE161      0.2592
      4  O         32.1660   35.3150   14.1900 O.2   161  ILE161     -0.2718
      5  CB        30.6470   37.7690   13.6540 C.3   161  ILE161      0.0266
      6  CG1       31.7660   38.7760   13.3210 C.3   161  ILE161      0.0019
      7  CG2       29.2610   38.4130   13.5820 C.3   161  ILE161      0.0020
      8  CD1       31.7500   39.2740   11.9130 C.3   161  ILE161      0.0001
      9  N         32.6840   36.0580   16.2570 N.am  162  GLN162     -0.1966
     10  CA        33.7650   35.0860   16.4730 C.3   162  GLN162      0.1733
     11  C         33.2490   33.8360   17.2250 C.2   162  GLN162      0.2616
     12  O         33.3040   33.7520   18.4600 O.2   162  GLN162     -0.2715
     13  CB        34.9330   35.7680   17.2250 C.3   162  GLN162      0.0408
     14  CG        36.1660   34.8840   17.4760 C.3   162  GLN162      0.0908
     15  CD        36.5560   34.8620   18.9490 C.2   162  GLN162      0.2608
     16  OE1       35.9590   34.1260   19.7500 O.2   162  GLN162     -0.2717
     17  NE2       37.5360   35.6880   19.3250 N.am  162  GLN162     -0.0878
     18  N         32.7520   32.8550   16.4780 N.am  163  PHE163     -0.1960
     19  CA        32.2200   31.6410   17.1120 C.3   163  PHE163      0.1771
     20  C         33.3610   30.6680   17.2600 C.2   163  PHE163      0.2619
     21  O         34.1670   30.5230   16.3480 O.2   163  PHE163     -0.2715
     22  CB        31.0610   31.0230   16.3350 C.3   163  PHE163      0.0574
     23  CG        29.9200   31.9930   16.0290 C.ar  163  PHE163     -0.0200
     24  CD1       29.7240   33.1640   16.7710 C.ar  163  PHE163     -0.0042
     25  CD2       29.0420   31.7220   15.0140 C.ar  163  PHE163     -0.0042
     26  CE1       28.6970   34.0260   16.4840 C.ar  163  PHE163     -0.0003
     27  CE2       28.0180   32.5890   14.7310 C.ar  163  PHE163     -0.0003
     28  CZ        27.8410   33.7450   15.4750 C.ar  163  PHE163     -0.0000
     29  N         33.4690   30.0600   18.4440 N.am  164  GLU164     -0.1977
     30  CA        34.3710   28.9400   18.6310 C.3   164  GLU164      0.1602
     31  C         33.9330   27.9570   19.6820 C.2   164  GLU164      0.2287
     32  O         33.1620   28.2680   20.5610 O.2   164  GLU164     -0.2864
     33  CB        35.7980   29.4040   18.9420 C.3   164  GLU164      0.0415
     34  CG        35.9400   29.9830   20.3130 C.3   164  GLU164      0.1163
     35  CD        37.2700   30.6640   20.5140 C.2   164  GLU164      0.3649
     36  OE1       38.3550   30.0410   20.2670 O.co2 164  GLU164     -0.2457
     37  OE2       37.2120   31.8320   20.9390 O.co2 164  GLU164     -0.2457
     38  N         25.9640   34.9850    8.0410 N.3   194  PHE194     -0.1241
     39  CA        26.9720   35.4200    7.0690 C.3   194  PHE194      0.1605
     40  C         26.5780   35.1980    5.6050 C.2   194  PHE194      0.2264
     41  O         25.9160   34.2250    5.2890 O.2   194  PHE194     -0.2867
     42  CB        28.2680   34.6370    7.3050 C.3   194  PHE194      0.0534
     43  CG        28.5470   34.4290    8.7290 C.ar  194  PHE194     -0.0203
     44  CD1       29.0900   35.4510    9.4780 C.ar  194  PHE194     -0.0042
     45  CD2       28.1740   33.2490    9.3530 C.ar  194  PHE194     -0.0042
     46  CE1       29.2860   35.3020   10.8020 C.ar  194  PHE194     -0.0003
     47  CE2       28.3780   33.0920   10.6790 C.ar  194  PHE194     -0.0003
     48  CZ        28.9400   34.1330   11.4180 C.ar  194  PHE194     -0.0000
     49  N         24.0230   32.1340    4.9470 N.3   215  THR215     -0.1218
     50  CA        24.2740   30.8350    5.5910 C.3   215  THR215      0.1862
     51  C         23.1500   30.5130    6.5780 C.2   215  THR215      0.2287
     52  O         22.7380   31.3410    7.4270 O.2   215  THR215     -0.2866
     53  CB        25.6680   30.7650    6.3080 C.3   215  THR215      0.1770
     54  OG1       26.7460   30.9830    5.3540 O.3   215  THR215     -0.2211
     55  CG2       25.8640   29.3880    7.0960 C.3   215  THR215      0.0375
     56  N         25.8680   26.4230   10.7560 N.3   220  THR220     -0.1218
     57  CA        26.9150   27.0230   11.5720 C.3   220  THR220      0.1862
     58  C         27.0340   26.4250   12.9840 C.2   220  THR220      0.2287
     59  O         28.1520   26.1510   13.4350 O.2   220  THR220     -0.2866
     60  CB        26.7480   28.5370   11.6890 C.3   220  THR220      0.1770
     61  OG1       26.7440   29.0920   10.3730 O.3   220  THR220     -0.2211
     62  CG2       27.9140   29.1270   12.5280 C.3   220  THR220      0.0375
     63  N         28.5790   22.9320   12.6090 N.3   223  HIS223     -0.1226
     64  CA        30.0530   23.0720   12.4590 C.3   223  HIS223      0.1752
     65  C         30.7320   23.0640   13.8360 C.2   223  HIS223      0.2595
     66  O         31.6760   22.2870   14.0630 O.2   223  HIS223     -0.2718
     67  CB        30.4040   24.3760   11.6720 C.3   223  HIS223      0.0759
     68  CG        31.8820   24.6660   11.5400 C.ar  223  HIS223      0.0818
     69  ND1       32.5480   24.6270   10.3260 N.ar  223  HIS223     -0.2268
     70  CD2       32.8200   25.0160   12.4620 C.ar  223  HIS223      0.1154
     71  CE1       33.8230   24.9450   10.5050 C.ar  223  HIS223      0.1986
     72  NE2       34.0220   25.1690   11.7930 N.ar  223  HIS223     -0.2212
     73  N         30.2140   23.8960   14.7590 N.am  224  GLU224     -0.1979
     74  CA        30.7870   24.0380   16.1160 C.3   224  GLU224      0.1602
     75  C         30.6020   22.7750   16.9120 C.2   224  GLU224      0.2287
     76  O         31.5100   22.3530   17.6310 O.2   224  GLU224     -0.2864
     77  CB        30.1550   25.2010   16.8930 C.3   224  GLU224      0.0415
     78  CG        30.3550   26.6220   16.3310 C.3   224  GLU224      0.1163
     79  CD        31.7920   26.9150   16.0010 C.2   224  GLU224      0.3649
     80  OE1       32.0210   27.6900   15.0560 O.co2 224  GLU224     -0.2457
     81  OE2       32.6960   26.3600   16.6490 O.co2 224  GLU224     -0.2457
     82  N         33.3760   20.0740   15.8820 N.3   227  HIS227     -0.1241
     83  CA        34.4860   20.3920   16.7870 C.3   227  HIS227      0.1621
     84  C         34.2560   19.8630   18.1810 C.2   227  HIS227      0.2264
     85  O         35.1670   19.3710   18.8230 O.2   227  HIS227     -0.2867
     86  CB        34.6300   21.9170   16.9840 C.3   227  HIS227      0.0745
     87  CG        35.2560   22.6700   15.8460 C.ar  227  HIS227      0.0817
     88  ND1       36.4000   22.2570   15.1980 N.ar  227  HIS227     -0.2268
     89  CD2       34.9530   23.8850   15.3240 C.ar  227  HIS227      0.1154
     90  CE1       36.7440   23.1550   14.2920 C.ar  227  HIS227      0.1986
     91  NE2       35.8710   24.1430   14.3310 N.ar  227  HIS227     -0.2212
     92  N         40.2320   22.7160   11.0720 N.3   248  GLU248     -0.1245
     93  CA        39.1790   23.4370   10.3310 C.3   248  GLU248      0.1567
     94  C         38.7690   22.7440    9.0220 C.2   248  GLU248      0.2260
     95  O         37.5860   22.5850    8.7320 O.2   248  GLU248     -0.2867
     96  CB        39.5950   24.8890   10.0340 C.3   248  GLU248      0.0388
     97  CG        39.5980   25.8480   11.2500 C.3   248  GLU248      0.1160
     98  CD        38.2520   25.9480   11.9990 C.2   248  GLU248      0.3649
     99  OE1       38.2160   26.4240   13.1480 O.co2 248  GLU248     -0.2457
    100  OE2       37.2200   25.5780   11.4410 O.co2 248  GLU248     -0.2457
    101  N         28.5360   27.7420    1.0690 N.3   349  ARG349     -0.1245
    102  CA        29.8240   27.9410    0.3790 C.3   349  ARG349      0.1563
    103  C         30.5300   26.6070    0.1510 C.2   349  ARG349      0.2260
    104  O         30.2630   25.6410    0.8360 O.2   349  ARG349     -0.2867
    105  CB        30.7250   28.9310    1.1400 C.3   349  ARG349      0.0307
    106  CG        31.2300   28.4490    2.5050 C.3   349  ARG349      0.0489
    107  CD        31.6650   29.6370    3.4110 C.3   349  ARG349      0.2205
    108  NE        32.7200   29.3000    4.3940 N.pl3 349  ARG349     -0.0865
    109  CZ        32.5180   28.7550    5.5910 C.cat 349  ARG349      0.5346
    110  NH1       31.2880   28.4580    6.0000 N.pl3 349  ARG349      0.1354
    111  NH2       33.5490   28.4900    6.3820 N.pl3 349  ARG349      0.1354
    112  N         36.0980   26.2620    2.8720 N.3   352  TYR352     -0.1241
    113  CA        36.2930   27.0650    4.0990 C.3   352  TYR352      0.1605
    114  C         37.1080   28.3150    3.7330 C.2   352  TYR352      0.2264
    115  O         36.9080   29.3850    4.2920 O.2   352  TYR352     -0.2867
    116  CB        37.0040   26.2270    5.1930 C.3   352  TYR352      0.0534
    117  CG        37.2810   26.9290    6.5460 C.ar  352  TYR352     -0.0201
    118  CD1       38.5110   27.5210    6.8060 C.ar  352  TYR352     -0.0009
    119  CD2       36.3130   26.9560    7.5700 C.ar  352  TYR352     -0.0009
    120  CE1       38.7640   28.1380    8.0260 C.ar  352  TYR352      0.0417
    121  CE2       36.5530   27.5700    8.7790 C.ar  352  TYR352      0.0417
    122  CZ        37.7770   28.1620    9.0110 C.ar  352  TYR352      0.1957
    123  OH        38.0430   28.7800   10.2210 O.3   352  TYR352     -0.2866
    124  N         34.1410   35.3020    4.2720 N.3   356  ASP356     -0.1239
    125  CA        32.7730   35.8500    4.3100 C.3   356  ASP356      0.1674
    126  C         32.7750   37.2800    3.7220 C.2   356  ASP356      0.2266
    127  O         33.7770   37.9980    3.7370 O.2   356  ASP356     -0.2867
    128  CB        32.1210   35.7700    5.7110 C.3   356  ASP356      0.1410
    129  CG        32.0330   34.3090    6.2560 C.2   356  ASP356      0.3668
    130  OD1       32.3460   34.1220    7.4480 O.co2 356  ASP356     -0.2456
    131  OD2       31.6450   33.3590    5.5130 O.co2 356  ASP356     -0.2456
@<TRIPOS>BOND
     1   103   102    1
     2   103   104    2
     3   102   101    1
     4   102   105    1
     5   105   106    1
     6   106   107    1
     7   112   113    1
     8   107   108    1
     9   126   127    2
    10   126   125    1
    11   114   113    1
    12   114   115    2
    13   113   116    1
    14   124   125    1
    15   125   128    1
    16   108   109    2
    17    49    50    1
    18   116   117    1
    19    41    40    2
    20    54    53    1
    21   131   129   ar
    22   109   110    1
    23   109   111    1
    24    50    53    1
    25    50    51    1
    26    40    39    1
    27   128   129    1
    28   129   130   ar
    29    53    55    1
    30   117   118   ar
    31   117   119   ar
    32    51    52    2
    33   118   120   ar
    34    39    42    1
    35    39    38    1
    36    42    43    1
    37   119   121   ar
    38   120   122   ar
    39    43    45   ar
    40    43    44   ar
    41    95    94    2
    42   121   122   ar
    43   122   123    1
    44    94    93    1
    45    45    47   ar
    46    44    46   ar
    47    96    93    1
    48    96    97    1
    49    69    71   ar
    50    69    68   ar
    51    93    92    1
    52    61    60    1
    53    71    72   ar
    54    47    48   ar
    55    56    57    1
    56    46    48   ar
    57    97    98    1
    58   100    98   ar
    59    68    67    1
    60    68    70   ar
    61    57    60    1
    62    57    58    1
    63    67    64    1
    64    60    62    1
    65    72    70   ar
    66     8     6    1
    67    98    99   ar
    68    64    63    1
    69    64    65    1
    70    58    59    2
    71     6     5    1
    72     7     5    1
    73     5     2    1
    74    65    66    2
    75    65    73   am
    76     4     3    2
    77    90    91   ar
    78    90    88   ar
    79    91    89   ar
    80    27    25   ar
    81    27    28   ar
    82    73    74    1
    83    25    23   ar
    84    80    79   ar
    85     2     3    1
    86     2     1    1
    87     3     9   am
    88    88    87   ar
    89    89    87   ar
    90    28    26   ar
    91    87    86    1
    92    82    83    1
    93    79    78    1
    94    79    81   ar
    95    23    22    1
    96    23    24   ar
    97    74    77    1
    98    74    75    1
    99     9    10    1
   100    78    77    1
   101    22    19    1
   102    21    20    2
   103    10    11    1
   104    10    13    1
   105    18    19    1
   106    18    11   am
   107    26    24   ar
   108    83    86    1
   109    83    84    1
   110    75    76    2
   111    19    20    1
   112    11    12    2
   113    13    14    1
   114    20    29   am
   115    14    15    1
   116    84    85    2
   117    29    30    1
   118    30    33    1
   119    30    31    1
   120    33    34    1
   121    15    17   am
   122    15    16    2
   123    31    32    2
   124    36    35   ar
   125    34    35    1
   126    35    37   ar
