@<TRIPOS>MOLECULE
tmp/2imbA00.pdb
 137 132 0 0 0
SMALL
GASTEIGER

@<TRIPOS>ATOM
      1  N         -7.4520  -19.0910   22.1400 N.3    68  VAL68      -0.1245
      2  CA        -6.0570  -18.8350   21.7000 C.3    68  VAL68       0.1561
      3  C         -5.1370  -18.5920   22.9320 C.2    68  VAL68       0.2260
      4  O         -5.1510  -17.5040   23.5180 O.2    68  VAL68      -0.2867
      5  CB        -5.9550  -17.6340   20.7280 C.3    68  VAL68       0.0252
      6  CG1       -4.5160  -17.3770   20.2930 C.3    68  VAL68       0.0019
      7  CG2       -6.7850  -17.9440   19.4800 C.3    68  VAL68       0.0019
      8  N          1.1590  -15.8020   25.5110 N.3   159  ILE159     -0.1231
      9  CA         0.7040  -14.8710   24.4340 C.3   159  ILE159      0.1692
     10  C         -0.4530  -13.8860   24.8070 C.2   159  ILE159      0.2592
     11  O         -0.9780  -13.1620   23.9570 O.2   159  ILE159     -0.2718
     12  CB         0.4020  -15.6170   23.0900 C.3   159  ILE159      0.0266
     13  CG1       -0.6430  -16.7310   23.2480 C.3   159  ILE159      0.0019
     14  CG2        1.7150  -16.1580   22.4830 C.3   159  ILE159      0.0020
     15  CD1       -0.9230  -17.4480   21.9430 C.3   159  ILE159      0.0001
     16  N         -0.7830  -13.8000   26.0900 N.am  160  GLN160     -0.1966
     17  CA        -1.7010  -12.7880   26.5420 C.3   160  GLN160      0.1733
     18  C         -0.9860  -11.4500   26.7640 C.2   160  GLN160      0.2616
     19  O         -0.7500  -10.9930   27.8930 O.2   160  GLN160     -0.2715
     20  CB        -2.3660  -13.2610   27.8090 C.3   160  GLN160      0.0408
     21  CG        -3.6180  -12.5270   28.1070 C.3   160  GLN160      0.0908
     22  CD        -3.9870  -12.6710   29.5470 C.2   160  GLN160      0.2608
     23  OE1       -4.9330  -13.3970   29.8750 O.2   160  GLN160     -0.2717
     24  NE2       -3.2330  -11.9860   30.4420 N.am  160  GLN160     -0.0878
     25  N         -0.6370  -10.7920   25.6780 N.am  161  PHE161     -0.1960
     26  CA         0.0320   -9.4960   25.7980 C.3   161  PHE161      0.1771
     27  C         -1.0110   -8.4660   26.1710 C.2   161  PHE161      0.2619
     28  O         -2.1180   -8.4890   25.6280 O.2   161  PHE161     -0.2715
     29  CB         0.7300   -9.1150   24.4930 C.3   161  PHE161      0.0574
     30  CG         1.8360  -10.0840   24.0500 C.ar  161  PHE161     -0.0200
     31  CD1        2.3800  -11.0520   24.9250 C.ar  161  PHE161     -0.0042
     32  CD2        2.3540   -9.9920   22.7620 C.ar  161  PHE161     -0.0042
     33  CE1        3.3750  -11.8960   24.5120 C.ar  161  PHE161     -0.0003
     34  CE2        3.3720  -10.8510   22.3420 C.ar  161  PHE161     -0.0003
     35  CZ         3.8720  -11.7990   23.2020 C.ar  161  PHE161     -0.0000
     36  N         -0.6620   -7.5940   27.1230 N.am  162  GLU162     -0.1963
     37  CA        -1.5000   -6.4870   27.5170 C.3   162  GLU162      0.1733
     38  C         -0.7710   -5.3740   28.2700 C.2   162  GLU162      0.2616
     39  O          0.3380   -5.5240   28.7570 O.2   162  GLU162     -0.2715
     40  CB        -2.6380   -6.9720   28.3770 C.3   162  GLU162      0.0429
     41  CG        -2.2520   -7.2380   29.7980 C.3   162  GLU162      0.1163
     42  CD        -3.3170   -8.0270   30.5370 C.2   162  GLU162      0.3649
     43  OE1       -4.3920   -7.4390   30.8690 O.co2 162  GLU162     -0.2457
     44  OE2       -3.0680   -9.2450   30.7530 O.co2 162  GLU162     -0.2457
     45  N         -1.4620   -4.2540   28.3750 N.am  163  CYS163     -0.1968
     46  CA        -0.9800   -3.0770   29.0480 C.3   163  CYS163      0.1712
     47  C         -1.8480   -2.8810   30.2670 C.2   163  CYS163      0.2296
     48  O         -3.0390   -2.6630   30.1270 O.2   163  CYS163     -0.2864
     49  CB        -1.1070   -1.8890   28.0790 C.3   163  CYS163      0.0983
     50  SG        -0.5790   -0.3400   28.7140 S.3   163  CYS163     -0.0798
     51  N          2.7540  -14.2360   16.0560 N.3   192  PHE192     -0.1241
     52  CA         1.5110  -14.8770   15.6100 C.3   192  PHE192      0.1605
     53  C          1.3790  -15.0120   14.1040 C.2   192  PHE192      0.2264
     54  O          1.9240  -14.2440   13.3460 O.2   192  PHE192     -0.2867
     55  CB         0.3120  -14.0910   16.1180 C.3   192  PHE192      0.0534
     56  CG         0.4410  -13.6920   17.5340 C.ar  192  PHE192     -0.0203
     57  CD1        0.1700  -14.6100   18.5360 C.ar  192  PHE192     -0.0042
     58  CD2        0.8830  -12.4220   17.8750 C.ar  192  PHE192     -0.0042
     59  CE1        0.3300  -14.2630   19.8550 C.ar  192  PHE192     -0.0003
     60  CE2        1.0380  -12.0710   19.1730 C.ar  192  PHE192     -0.0003
     61  CZ         0.7550  -12.9770   20.1840 C.ar  192  PHE192     -0.0000
     62  N          3.5280   -5.2170   17.0080 N.3   209  THR209     -0.1218
     63  CA         2.8430   -5.7100   18.2200 C.3   209  THR209      0.1862
     64  C          3.1970   -4.9240   19.5070 C.2   209  THR209      0.2287
     65  O          2.3220   -4.6400   20.3260 O.2   209  THR209     -0.2866
     66  CB         3.1850   -7.2150   18.4810 C.3   209  THR209      0.1770
     67  OG1        3.0040   -7.9550   17.2680 O.3   209  THR209     -0.2211
     68  CG2        2.2990   -7.7700   19.6340 C.3   209  THR209      0.0375
     69  N          1.4820   -1.5230   19.2210 N.3   212  HIS212     -0.1226
     70  CA         0.0750   -1.6420   19.6370 C.3   212  HIS212      0.1752
     71  C         -0.0320   -1.3880   21.1120 C.2   212  HIS212      0.2595
     72  O         -0.8560   -0.6120   21.5710 O.2   212  HIS212     -0.2718
     73  CB        -0.4610   -3.0530   19.2770 C.3   212  HIS212      0.0759
     74  CG        -1.9020   -3.2960   19.6650 C.ar  212  HIS212      0.0818
     75  ND1       -2.9470   -3.1840   18.7680 N.ar  212  HIS212     -0.2268
     76  CD2       -2.4640   -3.6460   20.8520 C.ar  212  HIS212      0.1154
     77  CE1       -4.0900   -3.4290   19.3940 C.ar  212  HIS212      0.1986
     78  NE2       -3.8250   -3.7080   20.6590 N.ar  212  HIS212     -0.2212
     79  N          0.8230   -2.0600   21.8700 N.am  213  GLU213     -0.1979
     80  CA         0.7920   -2.0070   23.3370 C.3   213  GLU213      0.1602
     81  C          1.1960   -0.6370   23.8630 C.2   213  GLU213      0.2287
     82  O          0.6080   -0.1130   24.8420 O.2   213  GLU213     -0.2864
     83  CB         1.6950   -3.1170   23.9070 C.3   213  GLU213      0.0415
     84  CG         1.1880   -4.5620   23.7340 C.3   213  GLU213      0.1163
     85  CD        -0.3290   -4.7250   24.0310 C.2   213  GLU213      0.3649
     86  OE1       -0.8460   -4.0880   24.9760 O.co2 213  GLU213     -0.2457
     87  OE2       -1.0010   -5.4930   23.3010 O.co2 213  GLU213     -0.2457
     88  N         -1.7640    1.8430   23.6430 N.3   216  HIS216     -0.1241
     89  CA        -2.6350    1.7440   24.8300 C.3   216  HIS216      0.1621
     90  C         -2.0060    2.5020   26.0450 C.2   216  HIS216      0.2264
     91  O         -2.7070    3.1150   26.8690 O.2   216  HIS216     -0.2867
     92  CB        -2.8250    0.2830   25.2330 C.3   216  HIS216      0.0745
     93  CG        -3.8230   -0.4660   24.4170 C.ar  216  HIS216      0.0817
     94  ND1       -5.0890    0.0180   24.1510 N.ar  216  HIS216     -0.2268
     95  CD2       -3.7670   -1.7010   23.8650 C.ar  216  HIS216      0.1154
     96  CE1       -5.7430   -0.8630   23.4150 C.ar  216  HIS216      0.1986
     97  NE2       -4.9730   -1.9220   23.2480 N.ar  216  HIS216     -0.2212
     98  N         -9.8350   -1.0060   21.6370 N.3   239  GLU239     -0.1245
     99  CA        -9.0870   -1.7980   20.6190 C.3   239  GLU239      0.1567
    100  C         -9.2670   -1.2940   19.1980 C.2   239  GLU239      0.2260
    101  O         -8.3070   -1.2290   18.4320 O.2   239  GLU239     -0.2867
    102  CB        -9.5010   -3.2780   20.6420 C.3   239  GLU239      0.0388
    103  CG        -9.2120   -4.0230   21.9490 C.3   239  GLU239      0.1160
    104  CD        -7.7570   -4.0510   22.3040 C.2   239  GLU239      0.3649
    105  OE1       -6.9110   -4.0050   21.3960 O.co2 239  GLU239     -0.2457
    106  OE2       -7.4360   -4.0730   23.5060 O.co2 239  GLU239     -0.2457
    107  N         -2.2270   -8.0310    9.3510 N.3   338  ARG338     -0.1245
    108  CA        -3.6950   -8.1740    9.2570 C.3   338  ARG338      0.1563
    109  C         -4.3900   -6.8690    8.8990 C.2   338  ARG338      0.2260
    110  O         -4.0030   -5.7970    9.3990 O.2   338  ARG338     -0.2867
    111  CB        -4.2660   -8.6470   10.6130 C.3   338  ARG338      0.0307
    112  CG        -4.3060   -7.5330   11.6840 C.3   338  ARG338      0.0489
    113  CD        -4.6680   -8.0470   13.0740 C.3   338  ARG338      0.2205
    114  NE        -4.3490   -7.0830   14.1210 N.pl3 338  ARG338     -0.0865
    115  CZ        -4.5800   -7.2680   15.4140 C.cat 338  ARG338      0.5346
    116  NH1       -4.2280   -6.3340   16.3010 N.pl3 338  ARG338      0.1354
    117  NH2       -5.1470   -8.3900   15.8390 N.pl3 338  ARG338      0.1354
    118  N         -8.7340   -5.6130   12.8730 N.3   341  TYR341     -0.1241
    119  CA        -8.5830   -6.2050   14.2100 C.3   341  TYR341      0.1605
    120  C         -9.4120   -7.5050   14.3370 C.2   341  TYR341      0.2264
    121  O         -9.0410   -8.4110   15.0540 O.2   341  TYR341     -0.2867
    122  CB        -8.9770   -5.1790   15.2910 C.3   341  TYR341      0.0534
    123  CG        -8.7620   -5.6470   16.7280 C.ar  341  TYR341     -0.0201
    124  CD1       -9.7890   -6.2300   17.4480 C.ar  341  TYR341     -0.0009
    125  CD2       -7.5260   -5.5160   17.3520 C.ar  341  TYR341     -0.0009
    126  CE1       -9.5930   -6.6630   18.7540 C.ar  341  TYR341      0.0417
    127  CE2       -7.3250   -5.9350   18.6430 C.ar  341  TYR341      0.0417
    128  CZ        -8.3500   -6.5120   19.3490 C.ar  341  TYR341      0.1957
    129  OH        -8.1500   -6.9400   20.6540 O.3   341  TYR341     -0.2866
    130  N         -6.2120  -15.1930   14.7190 N.3   345  ASP345     -0.1239
    131  CA        -4.8910  -15.7850   14.5870 C.3   345  ASP345      0.1674
    132  C         -5.0110  -17.2770   14.3910 C.2   345  ASP345      0.2266
    133  O         -5.9540  -17.9170   14.8590 O.2   345  ASP345     -0.2867
    134  CB        -4.0690  -15.5430   15.8350 C.3   345  ASP345      0.1410
    135  CG        -3.7400  -14.1130   16.0220 C.2   345  ASP345      0.3668
    136  OD1       -3.5420  -13.4010   15.0060 O.co2 345  ASP345     -0.2456
    137  OD2       -3.6670  -13.7060   17.1930 O.co2 345  ASP345     -0.2456
@<TRIPOS>BOND
     1   109   108    1
     2   109   110    2
     3   108   107    1
     4   108   111    1
     5   111   112    1
     6   112   113    1
     7   118   119    1
     8   113   114    1
     9    54    53    2
    10    53    52    1
    11   114   115    2
    12   119   120    1
    13   119   122    1
    14   120   121    2
    15   132   131    1
    16   132   133    2
    17   131   130    1
    18   131   134    1
    19   136   135   ar
    20   122   123    1
    21   115   117    1
    22   115   116    1
    23    52    51    1
    24    52    55    1
    25   134   135    1
    26   135   137   ar
    27    55    56    1
    28   123   125   ar
    29   123   124   ar
    30    62    63    1
    31    67    66    1
    32   125   127   ar
    33   124   126   ar
    34    56    58   ar
    35    56    57   ar
    36    58    60   ar
    37    63    66    1
    38    63    64    1
    39   101   100    2
    40    66    68    1
    41    57    59   ar
    42   127   128   ar
    43   126   128   ar
    44    75    77   ar
    45    75    74   ar
    46    60    61   ar
    47   100    99    1
    48    69    70    1
    49    73    70    1
    50    73    74    1
    51   128   129    1
    52    77    78   ar
    53     7     5    1
    54    64    65    2
    55    70    71    1
    56    74    76   ar
    57    59    61   ar
    58     6     5    1
    59    99   102    1
    60    99    98    1
    61   102   103    1
    62    78    76   ar
    63     5     2    1
    64    71    72    2
    65    71    79   am
    66   105   104   ar
    67     2     1    1
    68     2     3    1
    69    79    80    1
    70    15    13    1
    71   103   104    1
    72   104   106   ar
    73    34    32   ar
    74    34    35   ar
    75    14    12    1
    76    32    30   ar
    77     3     4    2
    78    12    13    1
    79    12     9    1
    80    35    33   ar
    81    97    96   ar
    82    97    95   ar
    83    87    85   ar
    84    80    81    1
    85    80    83    1
    86    96    94   ar
    87    88    89    1
    88    84    83    1
    89    84    85    1
    90    81    82    2
    91    95    93   ar
    92    11    10    2
    93    85    86   ar
    94    30    29    1
    95    30    31   ar
    96    94    93   ar
    97    93    92    1
    98     9    10    1
    99     9     8    1
   100    29    26    1
   101    33    31   ar
   102    10    16   am
   103    89    92    1
   104    89    90    1
   105    28    27    2
   106    25    26    1
   107    25    18   am
   108    26    27    1
   109    90    91    2
   110    16    17    1
   111    27    36   am
   112    17    18    1
   113    17    20    1
   114    18    19    2
   115    36    37    1
   116    37    38    1
   117    37    40    1
   118    20    21    1
   119    49    50    1
   120    49    46    1
   121    21    22    1
   122    38    45   am
   123    38    39    2
   124    45    46    1
   125    40    41    1
   126    46    47    1
   127    22    23    2
   128    22    24   am
   129    41    42    1
   130    48    47    2
   131    42    44   ar
   132    42    43   ar
