@<TRIPOS>MOLECULE
tmp/2imeA00.pdb
 162 157 0 0 0
SMALL
GASTEIGER

@<TRIPOS>ATOM
      1  N         21.4880   39.5950   31.7110 N.3    11  SER11      -0.1217
      2  CA        22.7490   39.2040   32.3950 C.3    11  SER11       0.1889
      3  C         22.4940   38.4610   33.7530 C.2    11  SER11       0.2288
      4  O         22.0270   39.0840   34.6800 O.2    11  SER11      -0.2866
      5  CB        23.4970   40.5240   32.6860 C.3    11  SER11       0.2089
      6  OG        24.6550   40.2780   33.4890 O.3    11  SER11      -0.2183
      7  N         24.8460   37.6690   35.8000 N.3    13  PHE13      -0.1241
      8  CA        25.6810   38.3060   36.8090 C.3    13  PHE13       0.1605
      9  C         25.0470   39.5760   37.3460 C.2    13  PHE13       0.2264
     10  O         25.1900   39.8920   38.5490 O.2    13  PHE13      -0.2867
     11  CB        27.0590   38.5530   36.2800 C.3    13  PHE13       0.0534
     12  CG        27.8300   37.2260   36.1290 C.ar   13  PHE13      -0.0203
     13  CD1       28.3120   36.5650   37.2650 C.ar   13  PHE13      -0.0042
     14  CD2       28.0120   36.6730   34.8490 C.ar   13  PHE13      -0.0042
     15  CE1       29.0210   35.3600   37.1370 C.ar   13  PHE13      -0.0003
     16  CE2       28.7540   35.4760   34.6740 C.ar   13  PHE13      -0.0003
     17  CZ        29.2290   34.8050   35.8660 C.ar   13  PHE13      -0.0000
     18  N         23.4400   45.8890   26.6550 N.3    39  LEU39      -0.1245
     19  CA        24.8040   45.2950   26.7520 C.3    39  LEU39       0.1561
     20  C         25.3580   45.1500   25.3120 C.2    39  LEU39       0.2260
     21  O         26.5120   45.4600   25.0530 O.2    39  LEU39      -0.2867
     22  CB        24.7570   43.9430   27.4660 C.3    39  LEU39       0.0270
     23  CG        26.1400   43.2190   27.4260 C.3    39  LEU39       0.0019
     24  CD1       27.3120   44.0500   27.9440 C.3    39  LEU39       0.0001
     25  CD2       26.0230   41.8470   28.0400 C.3    39  LEU39       0.0001
     26  N         28.9890   46.7400   24.0980 N.3    43  LYS43      -0.1245
     27  CA        30.0850   45.8830   23.5360 C.3    43  LYS43       0.1561
     28  C         30.5460   46.3310   22.1470 C.2    43  LYS43       0.2260
     29  O         31.7500   46.4860   21.8730 O.2    43  LYS43      -0.2867
     30  CB        29.6130   44.4280   23.4520 C.3    43  LYS43       0.0271
     31  CG        29.4900   43.7740   24.8640 C.3    43  LYS43       0.0035
     32  CD        28.9740   42.3520   24.8180 C.3    43  LYS43       0.0206
     33  CE        30.0250   41.3890   24.2680 C.3    43  LYS43       0.1093
     34  NZ        29.3540   40.0380   24.0350 N.3    43  LYS43      -0.1314
     35  N         32.7240   49.3550   22.0090 N.3    46  ILE46      -0.1245
     36  CA        34.1400   49.2920   22.3340 C.3    46  ILE46       0.1561
     37  C         34.8950   48.3040   21.4940 C.2    46  ILE46       0.2260
     38  O         36.0810   48.1000   21.7250 O.2    46  ILE46      -0.2867
     39  CB        34.4460   49.0700   23.8340 C.3    46  ILE46       0.0252
     40  CG1       33.9870   47.6780   24.2820 C.3    46  ILE46       0.0019
     41  CG2       33.7350   50.1090   24.6740 C.3    46  ILE46       0.0019
     42  CD1       34.9390   47.0830   25.3630 C.3    46  ILE46       0.0001
     43  N         34.0770   45.1200   21.0490 N.3    48  ASN48      -0.1240
     44  CA        34.0550   43.7380   21.5900 C.3    48  ASN48       0.1653
     45  C         33.0540   42.9510   20.8100 C.2    48  ASN48       0.2266
     46  O         31.8840   42.8540   21.2070 O.2    48  ASN48      -0.2867
     47  CB        33.6820   43.7780   23.1000 C.3    48  ASN48       0.1155
     48  CG        33.7280   42.4170   23.7600 C.2    48  ASN48       0.2627
     49  OD1       33.4160   42.3140   24.9690 O.2    48  ASN48      -0.2716
     50  ND2       34.1300   41.3750   23.0190 N.am   48  ASN48      -0.0877
     51  N         30.2850   34.7860   25.4280 N.3    53  ASN53      -0.1240
     52  CA        30.3040   33.6500   26.3430 C.3    53  ASN53       0.1653
     53  C         29.1480   32.6900   26.1750 C.2    53  ASN53       0.2266
     54  O         29.3420   31.4850   26.2620 O.2    53  ASN53      -0.2867
     55  CB        30.4130   34.0880   27.8200 C.3    53  ASN53       0.1155
     56  CG        31.7850   34.6490   28.1470 C.2    53  ASN53       0.2627
     57  OD1       32.7610   34.4940   27.3780 O.2    53  ASN53      -0.2716
     58  ND2       31.8610   35.3790   29.2420 N.am   53  ASN53      -0.0877
     59  N         30.5390   28.6400   33.4510 N.3    63  LEU63      -0.1245
     60  CA        29.9290   29.8600   34.0200 C.3    63  LEU63       0.1561
     61  C         28.6040   29.4130   34.7030 C.2    63  LEU63       0.2260
     62  O         28.2030   29.9950   35.7260 O.2    63  LEU63      -0.2867
     63  CB        29.6040   30.8900   32.9300 C.3    63  LEU63       0.0270
     64  CG        30.8920   31.5210   32.3180 C.3    63  LEU63       0.0019
     65  CD1       30.4740   32.2910   31.0640 C.3    63  LEU63       0.0001
     66  CD2       31.6190   32.4600   33.3380 C.3    63  LEU63       0.0001
     67  N         29.6410   28.4500   37.9900 N.3    66  ASP66      -0.1239
     68  CA        29.9530   29.6610   38.7840 C.3    66  ASP66       0.1674
     69  C         28.6490   30.3390   39.2850 C.2    66  ASP66       0.2266
     70  O         28.4660   30.6710   40.4950 O.2    66  ASP66      -0.2867
     71  CB        30.7870   30.6500   37.9740 C.3    66  ASP66       0.1410
     72  CG        31.3310   31.8070   38.8190 C.2    66  ASP66       0.3668
     73  OD1       31.7150   31.6150   40.0230 O.co2  66  ASP66      -0.2456
     74  OD2       31.3340   32.9450   38.3030 O.co2  66  ASP66      -0.2456
     75  N         27.3340   31.1560   43.2280 N.3    70  TRP70      -0.1241
     76  CA        26.9880   32.4100   43.8640 C.3    70  TRP70       0.1605
     77  C         25.5130   32.3920   44.3550 C.2    70  TRP70       0.2264
     78  O         25.1840   32.9850   45.4170 O.2    70  TRP70      -0.2867
     79  CB        27.1330   33.5250   42.8380 C.3    70  TRP70       0.0550
     80  CG        28.5900   33.8710   42.5830 C.ar   70  TRP70       0.0003
     81  CD1       29.4390   33.3540   41.6160 C.ar   70  TRP70       0.0946
     82  CD2       29.3440   34.7670   43.3630 C.ar   70  TRP70       0.0152
     83  NE1       30.6880   33.9420   41.7530 N.ar   70  TRP70      -0.2442
     84  CE2       30.6720   34.7740   42.8490 C.ar   70  TRP70       0.0810
     85  CE3       29.0470   35.5290   44.5180 C.ar   70  TRP70       0.0012
     86  CZ2       31.6770   35.5890   43.4110 C.ar   70  TRP70       0.0191
     87  CZ3       30.0510   36.3170   45.1070 C.ar   70  TRP70       0.0001
     88  CH2       31.3570   36.3130   44.5740 C.ar   70  TRP70       0.0015
     89  N         31.5930   49.2140   29.8020 N.3   166  PHE166     -0.1227
     90  CA        31.7860   48.2610   28.7100 C.3   166  PHE166      0.1736
     91  C         31.0080   46.9300   28.9370 C.2   166  PHE166      0.2596
     92  O         30.9480   46.0980   28.0360 O.2   166  PHE166     -0.2718
     93  CB        33.2720   47.8980   28.5590 C.3   166  PHE166      0.0547
     94  CG        33.8500   47.2920   29.8210 C.ar  166  PHE166     -0.0202
     95  CD1       33.6450   45.9280   30.0970 C.ar  166  PHE166     -0.0042
     96  CD2       34.5200   48.1040   30.7450 C.ar  166  PHE166     -0.0042
     97  CE1       34.1470   45.3450   31.2700 C.ar  166  PHE166     -0.0003
     98  CE2       35.0170   47.5400   31.9450 C.ar  166  PHE166     -0.0003
     99  CZ        34.8290   46.1570   32.2180 C.ar  166  PHE166     -0.0000
    100  N         30.4250   46.7620   30.1010 N.am  167  GLY167     -0.1942
    101  CA        29.7410   45.4860   30.4070 C.3   167  GLY167      0.2014
    102  C         28.8020   45.7220   31.6070 C.2   167  GLY167      0.2639
    103  O         28.6030   46.8830   32.0590 O.2   167  GLY167     -0.2714
    104  N         28.1350   44.6420   31.9810 N.am  168  VAL168     -0.1963
    105  CA        27.2680   44.6570   33.1530 C.3   168  VAL168      0.1712
    106  C         27.4960   43.4150   33.9900 C.2   168  VAL168      0.2458
    107  O         28.0100   42.4220   33.4870 O.2   168  VAL168     -0.2730
    108  CB        25.7420   44.6860   32.6990 C.3   168  VAL168      0.0289
    109  CG1       25.4230   46.0040   31.9990 C.3   168  VAL168      0.0023
    110  CG2       25.4050   43.4930   31.7880 C.3   168  VAL168      0.0023
    111  N         27.1800   43.4580   35.3270 N.am  169  PRO169     -0.2727
    112  CA        26.7210   44.6780   36.1360 C.3   169  PRO169      0.1402
    113  C         27.8890   45.6290   36.4380 C.2   169  PRO169      0.2269
    114  O         29.0040   45.1620   36.6210 O.2   169  PRO169     -0.2865
    115  CB        26.2610   44.0580   37.4620 C.3   169  PRO169      0.0296
    116  CG        27.1540   42.7790   37.6230 C.3   169  PRO169      0.0237
    117  CD        27.3800   42.2480   36.1560 C.3   169  PRO169      0.0939
    118  N         33.2000   46.4480   37.8500 N.3   179  TRP179     -0.1227
    119  CA        32.3900   45.6390   36.9740 C.3   179  TRP179      0.1737
    120  C         32.3210   44.2260   37.5760 C.2   179  TRP179      0.2596
    121  O         33.3530   43.6320   37.8180 O.2   179  TRP179     -0.2718
    122  CB        33.0790   45.6280   35.6180 C.3   179  TRP179      0.0564
    123  CG        32.5400   44.6120   34.6740 C.ar  179  TRP179      0.0003
    124  CD1       31.2330   44.4610   34.2420 C.ar  179  TRP179      0.0946
    125  CD2       33.2980   43.5840   34.0600 C.ar  179  TRP179      0.0152
    126  NE1       31.1730   43.3730   33.3620 N.ar  179  TRP179     -0.2442
    127  CE2       32.4140   42.8230   33.2440 C.ar  179  TRP179      0.0810
    128  CE3       34.6400   43.1890   34.1330 C.ar  179  TRP179      0.0012
    129  CZ2       32.8270   41.7280   32.5000 C.ar  179  TRP179      0.0191
    130  CZ3       35.0560   42.0970   33.3050 C.ar  179  TRP179      0.0001
    131  CH2       34.1440   41.3770   32.5390 C.ar  179  TRP179      0.0015
    132  N         31.1300   43.7120   37.8220 N.am  180  GLY180     -0.1942
    133  CA        30.9810   42.3420   38.2470 C.3   180  GLY180      0.2014
    134  C         30.3250   42.2490   39.6080 C.2   180  GLY180      0.2639
    135  O         30.6340   43.0190   40.5050 O.2   180  GLY180     -0.2714
    136  N         29.4330   41.2590   39.7600 N.am  181  ASN181     -0.1958
    137  CA        28.9100   40.9430   41.0920 C.3   181  ASN181      0.1819
    138  C         30.0450   40.5690   42.0220 C.2   181  ASN181      0.2621
    139  O         29.9890   40.8520   43.2240 O.2   181  ASN181     -0.2715
    140  CB        27.9840   39.7380   40.9610 C.3   181  ASN181      0.1195
    141  CG        27.6830   39.1270   42.2900 C.2   181  ASN181      0.2630
    142  OD1       26.8730   39.6900   43.0470 O.2   181  ASN181     -0.2716
    143  ND2       28.2580   37.9470   42.5730 N.am  181  ASN181     -0.0877
    144  N         31.0880   39.9410   41.4760 N.am  182  ASP182     -0.1957
    145  CA        32.2990   39.5240   42.2380 C.3   182  ASP182      0.1840
    146  C         33.2270   40.7180   42.5860 C.2   182  ASP182      0.2621
    147  O         34.3700   40.5320   43.0340 O.2   182  ASP182     -0.2715
    148  CB        33.0610   38.4340   41.5390 C.3   182  ASP182      0.1450
    149  CG        33.5480   38.8500   40.1350 C.2   182  ASP182      0.3671
    150  OD1       33.3440   40.0250   39.7070 O.co2 182  ASP182     -0.2456
    151  OD2       34.1280   37.9920   39.4630 O.co2 182  ASP182     -0.2456
    152  N         32.7710   41.9290   42.3460 N.am  183  ARG183     -0.1977
    153  CA        33.5140   43.0950   42.8000 C.3   183  ARG183      0.1597
    154  C         32.7020   43.9180   43.8630 C.2   183  ARG183      0.2287
    155  O         33.1200   44.9430   44.3350 O.2   183  ARG183     -0.2864
    156  CB        33.9460   43.9640   41.6070 C.3   183  ARG183      0.0334
    157  CG        35.0720   43.3060   40.6950 C.3   183  ARG183      0.0492
    158  CD        36.3570   42.9940   41.5300 C.3   183  ARG183      0.2205
    159  NE        37.3870   42.4440   40.6100 N.pl3 183  ARG183     -0.0865
    160  CZ        37.4440   41.1840   40.2300 C.cat 183  ARG183      0.5346
    161  NH1       36.5450   40.2570   40.6650 N.pl3 183  ARG183      0.1354
    162  NH2       38.4430   40.8080   39.4000 N.pl3 183  ARG183      0.1354
@<TRIPOS>BOND
     1    45    46    2
     2    45    44    1
     3    43    44    1
     4    37    38    2
     5    37    36    1
     6    44    47    1
     7    29    28    2
     8    35    36    1
     9    28    27    1
    10    36    39    1
    11    50    48   am
    12    47    48    1
    13    30    27    1
    14    30    31    1
    15    27    26    1
    16    48    49    2
    17    39    40    1
    18    39    41    1
    19    34    33    1
    20    33    32    1
    21    40    42    1
    22    32    31    1
    23    21    20    2
    24    20    19    1
    25    51    52    1
    26    53    54    2
    27    53    52    1
    28    52    55    1
    29    18    19    1
    30    19    22    1
    31    57    56    2
    32    23    22    1
    33    23    24    1
    34    23    25    1
    35    55    56    1
    36    92    91    2
    37    56    58   am
    38    93    90    1
    39    93    94    1
    40    90    91    1
    41    90    89    1
    42    91   100   am
    43    94    95   ar
    44    94    96   ar
    45    95    97   ar
    46   100   101    1
    47   101   102    1
    48    96    98   ar
    49    65    64    1
    50    97    99   ar
    51   102   104   am
    52   102   103    2
    53     1     2    1
    54   110   108    1
    55    98    99   ar
    56   104   105    1
    57   109   108    1
    58    64    63    1
    59    64    66    1
    60     2     5    1
    61     2     3    1
    62   129   131   ar
    63   129   127   ar
    64   131   130   ar
    65     5     6    1
    66   108   105    1
    67    63    60    1
    68   105   106    1
    69   127   126   ar
    70   127   125   ar
    71   130   128   ar
    72   126   124   ar
    73    59    60    1
    74   107   106    2
    75     3     4    2
    76   106   111   am
    77    60    61    1
    78   125   128   ar
    79   125   123   ar
    80   124   123   ar
    81   123   122    1
    82    16    14   ar
    83    16    17   ar
    84    61    62    2
    85    14    12   ar
    86   111   112    1
    87   111   117    1
    88   122   119    1
    89     7     8    1
    90    17    15   ar
    91    12    11    1
    92    12    13   ar
    93   112   113    1
    94   112   115    1
    95   117   116    1
    96    11     8    1
    97   113   114    2
    98     8     9    1
    99   119   120    1
   100   119   118    1
   101    15    13   ar
   102     9    10    2
   103   115   116    1
   104   120   121    2
   105   120   132   am
   106   132   133    1
   107    71    68    1
   108    71    72    1
   109    67    68    1
   110   133   134    1
   111    74    72   ar
   112    68    69    1
   113    72    73   ar
   114    69    70    2
   115   162   160    1
   116   151   149   ar
   117   134   136   am
   118   134   135    2
   119   150   149   ar
   120   136   137    1
   121   149   148    1
   122   160   159    2
   123   160   161    1
   124   159   158    1
   125   157   158    1
   126   157   156    1
   127   140   137    1
   128   140   141    1
   129   137   138    1
   130   144   138   am
   131   144   145    1
   132   148   145    1
   133   156   153    1
   134    81    83   ar
   135    81    80   ar
   136    83    84   ar
   137   138   139    2
   138   145   146    1
   139   141   143   am
   140   141   142    2
   141   152   146   am
   142   152   153    1
   143    80    79    1
   144    80    82   ar
   145   146   147    2
   146   153   154    1
   147    79    76    1
   148    84    82   ar
   149    84    86   ar
   150    75    76    1
   151    82    85   ar
   152    86    88   ar
   153   154   155    2
   154    76    77    1
   155    77    78    2
   156    85    87   ar
   157    88    87   ar
