@<TRIPOS>MOLECULE
tmp/2imeA02.pdb
 121 116 0 0 0
SMALL
GASTEIGER

@<TRIPOS>ATOM
      1  N         19.2350   40.6660   30.4260 N.3    10  LEU10      -0.1231
      2  CA        19.7990   39.4010   29.9380 C.3    10  LEU10       0.1693
      3  C         20.9700   38.8170   30.7470 C.2    10  LEU10       0.2593
      4  O         21.3970   37.6650   30.4940 O.2    10  LEU10      -0.2718
      5  CB        20.1770   39.4990   28.4280 C.3    10  LEU10       0.0284
      6  CG        21.3460   40.3470   27.9580 C.3    10  LEU10       0.0019
      7  CD1       22.6470   39.7580   28.4930 C.3    10  LEU10       0.0001
      8  CD2       21.4090   40.1670   26.3610 C.3    10  LEU10       0.0001
      9  N         21.4880   39.5950   31.7110 N.am   11  SER11      -0.1939
     10  CA        22.7490   39.2040   32.3950 C.3    11  SER11       0.2040
     11  C         22.4940   38.4610   33.7530 C.2    11  SER11       0.2485
     12  O         22.0270   39.0840   34.6800 O.2    11  SER11      -0.2729
     13  CB        23.4970   40.5240   32.6860 C.3    11  SER11       0.2129
     14  OG        24.6550   40.2780   33.4890 O.3    11  SER11      -0.2179
     15  N         22.9590   37.2100   33.8930 N.am   12  PRO12      -0.2715
     16  CA        22.7880   36.5140   35.1790 C.3    12  PRO12       0.1536
     17  C         23.7100   37.0920   36.2270 C.2    12  PRO12       0.2598
     18  O         23.4070   37.0560   37.4210 O.2    12  PRO12      -0.2715
     19  CB        23.1500   35.0700   34.8730 C.3    12  PRO12       0.0310
     20  CG        24.1570   35.1650   33.6780 C.3    12  PRO12       0.0237
     21  CD        23.6370   36.3890   32.8570 C.3    12  PRO12       0.0939
     22  N         24.8460   37.6690   35.8000 N.am   13  PHE13      -0.1974
     23  CA        25.6810   38.3060   36.8090 C.3    13  PHE13       0.1639
     24  C         25.0470   39.5760   37.3460 C.2    13  PHE13       0.2290
     25  O         25.1900   39.8920   38.5490 O.2    13  PHE13      -0.2864
     26  CB        27.0590   38.5530   36.2800 C.3    13  PHE13       0.0560
     27  CG        27.8300   37.2260   36.1290 C.ar   13  PHE13      -0.0200
     28  CD1       28.3120   36.5650   37.2650 C.ar   13  PHE13      -0.0042
     29  CD2       28.0120   36.6730   34.8490 C.ar   13  PHE13      -0.0042
     30  CE1       29.0210   35.3600   37.1370 C.ar   13  PHE13      -0.0003
     31  CE2       28.7540   35.4760   34.6740 C.ar   13  PHE13      -0.0003
     32  CZ        29.2290   34.8050   35.8660 C.ar   13  PHE13      -0.0000
     33  N         23.4400   45.8890   26.6550 N.3    39  LEU39      -0.1245
     34  CA        24.8040   45.2950   26.7520 C.3    39  LEU39       0.1561
     35  C         25.3580   45.1500   25.3120 C.2    39  LEU39       0.2260
     36  O         26.5120   45.4600   25.0530 O.2    39  LEU39      -0.2867
     37  CB        24.7570   43.9430   27.4660 C.3    39  LEU39       0.0270
     38  CG        26.1400   43.2190   27.4260 C.3    39  LEU39       0.0019
     39  CD1       27.3120   44.0500   27.9440 C.3    39  LEU39       0.0001
     40  CD2       26.0230   41.8470   28.0400 C.3    39  LEU39       0.0001
     41  N         28.9890   46.7400   24.0980 N.3    43  LYS43      -0.1245
     42  CA        30.0850   45.8830   23.5360 C.3    43  LYS43       0.1561
     43  C         30.5460   46.3310   22.1470 C.2    43  LYS43       0.2260
     44  O         31.7500   46.4860   21.8730 O.2    43  LYS43      -0.2867
     45  CB        29.6130   44.4280   23.4520 C.3    43  LYS43       0.0271
     46  CG        29.4900   43.7740   24.8640 C.3    43  LYS43       0.0035
     47  CD        28.9740   42.3520   24.8180 C.3    43  LYS43       0.0206
     48  CE        30.0250   41.3890   24.2680 C.3    43  LYS43       0.1093
     49  NZ        29.3540   40.0380   24.0350 N.3    43  LYS43      -0.1314
     50  N         30.1220   35.6840   21.9250 N.3    52  SER52      -0.1202
     51  CA        29.7550   35.8780   23.3160 C.3    52  SER52       0.2020
     52  C         30.0240   34.6030   24.1350 C.2    52  SER52       0.2619
     53  O         29.9440   33.4830   23.6290 O.2    52  SER52      -0.2717
     54  CB        28.2780   36.2330   23.3950 C.3    52  SER52       0.2103
     55  OG        28.0360   37.3980   22.6010 O.3    52  SER52      -0.2182
     56  N         30.2850   34.7860   25.4280 N.am   53  ASN53      -0.1960
     57  CA        30.3040   33.6500   26.3430 C.3    53  ASN53       0.1819
     58  C         29.1480   32.6900   26.1750 C.2    53  ASN53       0.2621
     59  O         29.3420   31.4850   26.2620 O.2    53  ASN53      -0.2715
     60  CB        30.4130   34.0880   27.8200 C.3    53  ASN53       0.1195
     61  CG        31.7850   34.6490   28.1470 C.2    53  ASN53       0.2630
     62  OD1       32.7610   34.4940   27.3780 O.2    53  ASN53      -0.2716
     63  ND2       31.8610   35.3790   29.2420 N.am   53  ASN53      -0.0877
     64  N         27.9470   33.1930   25.9060 N.am   54  ARG54      -0.1977
     65  CA        26.8060   32.2880   25.6830 C.3    54  ARG54       0.1597
     66  C         26.9590   31.3510   24.4780 C.2    54  ARG54       0.2287
     67  O         26.3330   30.2790   24.4230 O.2    54  ARG54      -0.2864
     68  CB        25.4670   33.0220   25.7080 C.3    54  ARG54       0.0334
     69  CG        25.2070   33.9250   24.5520 C.3    54  ARG54       0.0492
     70  CD        24.1420   34.8970   24.9620 C.3    54  ARG54       0.2205
     71  NE        23.2030   35.1840   23.8870 N.pl3  54  ARG54      -0.0865
     72  CZ        22.5640   36.3420   23.7470 C.cat  54  ARG54       0.5346
     73  NH1       21.7070   36.5010   22.7440 N.pl3  54  ARG54       0.1354
     74  NH2       22.7700   37.3390   24.6040 N.pl3  54  ARG54       0.1354
     75  N         30.6460   28.3750   28.7120 N.3    60  LEU60      -0.1245
     76  CA        29.3190   28.4660   29.3080 C.3    60  LEU60       0.1561
     77  C         29.0730   27.3540   30.3240 C.2    60  LEU60       0.2260
     78  O         28.4370   27.6140   31.3460 O.2    60  LEU60      -0.2867
     79  CB        28.2500   28.5180   28.2850 C.3    60  LEU60       0.0270
     80  CG        26.8160   28.5930   28.8080 C.3    60  LEU60       0.0019
     81  CD1       26.6330   29.9440   29.5680 C.3    60  LEU60       0.0001
     82  CD2       25.8740   28.4870   27.5660 C.3    60  LEU60       0.0001
     83  N         30.5390   28.6400   33.4510 N.3    63  LEU63      -0.1245
     84  CA        29.9290   29.8600   34.0200 C.3    63  LEU63       0.1561
     85  C         28.6040   29.4130   34.7030 C.2    63  LEU63       0.2260
     86  O         28.2030   29.9950   35.7260 O.2    63  LEU63      -0.2867
     87  CB        29.6040   30.8900   32.9300 C.3    63  LEU63       0.0270
     88  CG        30.8920   31.5210   32.3180 C.3    63  LEU63       0.0019
     89  CD1       30.4740   32.2910   31.0640 C.3    63  LEU63       0.0001
     90  CD2       31.6190   32.4600   33.3380 C.3    63  LEU63       0.0001
     91  N         27.7100   30.4670   38.3670 N.3    67  LEU67      -0.1245
     92  CA        26.4380   31.1630   38.7080 C.3    67  LEU67       0.1561
     93  C         25.7010   30.3830   39.8510 C.2    67  LEU67       0.2260
     94  O         25.1530   31.0170   40.7750 O.2    67  LEU67      -0.2867
     95  CB        25.5280   31.2130   37.4740 C.3    67  LEU67       0.0270
     96  CG        26.0930   32.3030   36.5230 C.3    67  LEU67       0.0019
     97  CD1       25.4270   32.1710   35.1460 C.3    67  LEU67       0.0001
     98  CD2       25.8540   33.7060   37.0260 C.3    67  LEU67       0.0001
     99  N         18.1150   29.4430   34.1570 N.3    80  PHE80      -0.1241
    100  CA        18.2800   30.0410   32.8350 C.3    80  PHE80       0.1605
    101  C         16.9520   30.1160   32.1000 C.2    80  PHE80       0.2264
    102  O         16.2550   29.0930   32.0050 O.2    80  PHE80      -0.2867
    103  CB        19.2390   29.2200   32.0140 C.3    80  PHE80       0.0534
    104  CG        20.6710   29.6520   32.1820 C.ar   80  PHE80      -0.0203
    105  CD1       21.3090   29.4870   33.4240 C.ar   80  PHE80      -0.0042
    106  CD2       21.3360   30.3330   31.1420 C.ar   80  PHE80      -0.0042
    107  CE1       22.6370   29.9000   33.6030 C.ar   80  PHE80      -0.0003
    108  CE2       22.6640   30.7710   31.3000 C.ar   80  PHE80      -0.0003
    109  CZ        23.3310   30.5510   32.5570 C.ar   80  PHE80      -0.0000
    110  N         17.7110   35.2830   25.5640 N.3    84  TYR84      -0.1241
    111  CA        18.3070   36.4430   26.1740 C.3    84  TYR84       0.1605
    112  C         17.7090   37.6880   25.5770 C.2    84  TYR84       0.2264
    113  O         18.3810   38.7350   25.5310 O.2    84  TYR84      -0.2867
    114  CB        19.8230   36.4510   25.9120 C.3    84  TYR84       0.0534
    115  CG        20.5030   35.2880   26.5450 C.ar   84  TYR84      -0.0201
    116  CD1       20.8470   35.2730   27.9150 C.ar   84  TYR84      -0.0009
    117  CD2       20.7830   34.1600   25.7940 C.ar   84  TYR84      -0.0009
    118  CE1       21.4610   34.1500   28.4750 C.ar   84  TYR84       0.0417
    119  CE2       21.4310   33.0580   26.3450 C.ar   84  TYR84       0.0417
    120  CZ        21.7400   33.0560   27.6850 C.ar   84  TYR84       0.1957
    121  OH        22.4020   31.9410   28.1730 O.3    84  TYR84      -0.2866
@<TRIPOS>BOND
     1    44    43    2
     2    50    51    1
     3    43    42    1
     4    55    54    1
     5    73    72    1
     6    51    54    1
     7    51    52    1
     8    45    42    1
     9    45    46    1
    10    42    41    1
    11    53    52    2
    12    72    71    2
    13    72    74    1
    14    71    70    1
    15    49    48    1
    16    52    56   am
    17    48    47    1
    18    67    66    2
    19    66    65    1
    20    69    70    1
    21    69    68    1
    22    47    46    1
    23    36    35    2
    24    35    34    1
    25    56    57    1
    26   113   112    2
    27   110   111    1
    28   112   111    1
    29    65    68    1
    30    65    64    1
    31   117   119   ar
    32   117   115   ar
    33    64    58   am
    34   114   111    1
    35   114   115    1
    36    58    59    2
    37    58    57    1
    38    57    60    1
    39   119   120   ar
    40     8     6    1
    41   115   116   ar
    42    33    34    1
    43    34    37    1
    44    62    61    2
    45    38    37    1
    46    38    39    1
    47    38    40    1
    48    82    80    1
    49   120   121    1
    50   120   118   ar
    51    60    61    1
    52   116   118   ar
    53     6     5    1
    54     6     7    1
    55    61    63   am
    56    79    80    1
    57    79    76    1
    58     5     2    1
    59    75    76    1
    60    80    81    1
    61    76    77    1
    62     2     1    1
    63     2     3    1
    64    77    78    2
    65     4     3    2
    66     3     9   am
    67    89    88    1
    68   106   108   ar
    69   106   104   ar
    70   108   109   ar
    71     9    10    1
    72   102   101    2
    73   103   104    1
    74   103   100    1
    75   101   100    1
    76   104   105   ar
    77    88    87    1
    78    88    90    1
    79    10    13    1
    80    10    11    1
    81   109   107   ar
    82    13    14    1
    83   100    99    1
    84    21    20    1
    85    21    15    1
    86    87    84    1
    87   105   107   ar
    88    83    84    1
    89    20    19    1
    90    11    15   am
    91    11    12    2
    92    15    16    1
    93    84    85    1
    94    31    29   ar
    95    31    32   ar
    96    85    86    2
    97    29    27   ar
    98    19    16    1
    99    97    96    1
   100    16    17    1
   101    22    17   am
   102    22    23    1
   103    32    30   ar
   104    27    26    1
   105    27    28   ar
   106    17    18    2
   107    26    23    1
   108    96    98    1
   109    96    95    1
   110    23    24    1
   111    30    28   ar
   112    24    25    2
   113    95    92    1
   114    91    92    1
   115    92    93    1
   116    93    94    2
