@<TRIPOS>MOLECULE
tmp/2imfA01.pdb
 121 116 0 0 0
SMALL
GASTEIGER

@<TRIPOS>ATOM
      1  N         19.3100   40.6290   30.7390 N.3    10  LEU10      -0.1231
      2  CA        19.8640   39.3460   30.1850 C.3    10  LEU10       0.1693
      3  C         20.9630   38.7720   31.0230 C.2    10  LEU10       0.2593
      4  O         21.3270   37.6220   30.8460 O.2    10  LEU10      -0.2718
      5  CB        20.3670   39.4780   28.7380 C.3    10  LEU10       0.0284
      6  CG        21.5950   40.3400   28.5120 C.3    10  LEU10       0.0019
      7  CD1       22.9030   39.5810   28.8260 C.3    10  LEU10       0.0001
      8  CD2       21.6570   40.7210   27.0630 C.3    10  LEU10       0.0001
      9  N         21.5200   39.5560   31.9690 N.am   11  SER11      -0.1939
     10  CA        22.7730   39.1790   32.6530 C.3    11  SER11       0.2040
     11  C         22.5680   38.4910   33.9790 C.2    11  SER11       0.2485
     12  O         22.0840   39.1180   34.8920 O.2    11  SER11      -0.2729
     13  CB        23.5940   40.4450   32.7970 C.3    11  SER11       0.2129
     14  OG        24.7130   40.2680   33.6970 O.3    11  SER11      -0.2179
     15  N         22.9870   37.2280   34.0650 N.am   12  PRO12      -0.2715
     16  CA        22.8500   36.5430   35.3560 C.3    12  PRO12       0.1536
     17  C         23.8110   37.0890   36.4210 C.2    12  PRO12       0.2598
     18  O         23.4870   37.0100   37.5860 O.2    12  PRO12      -0.2715
     19  CB        23.1780   35.0700   35.0160 C.3    12  PRO12       0.0310
     20  CG        24.0870   35.1580   33.8100 C.3    12  PRO12       0.0237
     21  CD        23.5880   36.3770   32.9910 C.3    12  PRO12       0.0939
     22  N         24.9750   37.6140   36.0350 N.am   13  PHE13      -0.1974
     23  CA        25.8240   38.2590   37.0230 C.3    13  PHE13       0.1639
     24  C         25.1680   39.5280   37.5220 C.2    13  PHE13       0.2290
     25  O         25.3540   39.8950   38.7030 O.2    13  PHE13      -0.2864
     26  CB        27.1880   38.4920   36.3730 C.3    13  PHE13       0.0560
     27  CG        27.9520   37.1860   36.1820 C.ar   13  PHE13      -0.0200
     28  CD1       28.5030   36.5120   37.2620 C.ar   13  PHE13      -0.0042
     29  CD2       28.0590   36.6510   34.9310 C.ar   13  PHE13      -0.0042
     30  CE1       29.1880   35.3240   37.0910 C.ar   13  PHE13      -0.0003
     31  CE2       28.7770   35.4350   34.7230 C.ar   13  PHE13      -0.0003
     32  CZ        29.3020   34.7850   35.8110 C.ar   13  PHE13      -0.0000
     33  N         23.4490   45.8740   26.8710 N.3    39  LEU39      -0.1245
     34  CA        24.8040   45.3200   26.8500 C.3    39  LEU39       0.1561
     35  C         25.3520   45.1890   25.4270 C.2    39  LEU39       0.2260
     36  O         26.5300   45.4070   25.1790 O.2    39  LEU39      -0.2867
     37  CB        24.8160   43.9410   27.5060 C.3    39  LEU39       0.0270
     38  CG        26.1830   43.2260   27.4890 C.3    39  LEU39       0.0019
     39  CD1       27.2500   44.0460   28.1980 C.3    39  LEU39       0.0001
     40  CD2       26.0390   41.8360   28.0470 C.3    39  LEU39       0.0001
     41  N         28.9500   46.7180   24.2180 N.3    43  LYS43      -0.1245
     42  CA        30.0470   45.8800   23.7490 C.3    43  LYS43       0.1561
     43  C         30.4960   46.3240   22.3810 C.2    43  LYS43       0.2260
     44  O         31.7170   46.4370   22.1490 O.2    43  LYS43      -0.2867
     45  CB        29.6150   44.4460   23.6500 C.3    43  LYS43       0.0271
     46  CG        29.5310   43.7740   25.0370 C.3    43  LYS43       0.0035
     47  CD        28.9330   42.3710   24.8710 C.3    43  LYS43       0.0206
     48  CE        29.8900   41.3980   24.2710 C.3    43  LYS43       0.1093
     49  NZ        29.1190   40.0690   24.0470 N.3    43  LYS43      -0.1314
     50  N         30.6220   35.7940   22.0860 N.3    52  SER52      -0.1202
     51  CA        30.2300   36.0470   23.4770 C.3    52  SER52       0.2020
     52  C         30.4830   34.7780   24.2610 C.2    52  SER52       0.2619
     53  O         30.4200   33.6640   23.7120 O.2    52  SER52      -0.2717
     54  CB        28.7150   36.2860   23.5490 C.3    52  SER52       0.2103
     55  OG        28.3610   37.5130   22.8840 O.3    52  SER52      -0.2182
     56  N         30.6720   34.9290   25.5600 N.am   53  ASN53      -0.1960
     57  CA        30.7760   33.7520   26.3900 C.3    53  ASN53       0.1819
     58  C         29.5490   32.8640   26.3230 C.2    53  ASN53       0.2621
     59  O         29.6580   31.6290   26.5500 O.2    53  ASN53      -0.2715
     60  CB        31.0800   34.1290   27.8260 C.3    53  ASN53       0.1195
     61  CG        32.4530   34.7920   27.9760 C.2    53  ASN53       0.2630
     62  OD1       33.3560   34.6930   27.1090 O.2    53  ASN53      -0.2716
     63  ND2       32.6120   35.4930   29.0820 N.am   53  ASN53      -0.0877
     64  N         28.3780   33.4360   26.0220 N.am   54  ARG54      -0.1977
     65  CA        27.1510   32.6410   25.7440 C.3    54  ARG54       0.1597
     66  C         27.3470   31.6090   24.6500 C.2    54  ARG54       0.2287
     67  O         26.6960   30.5720   24.6510 O.2    54  ARG54      -0.2864
     68  CB        25.9660   33.5000   25.3030 C.3    54  ARG54       0.0334
     69  CG        25.9290   34.8860   25.7880 C.3    54  ARG54       0.0492
     70  CD        24.6940   35.4980   25.2020 C.3    54  ARG54       0.2205
     71  NE        24.8560   36.9280   25.1720 N.pl3  54  ARG54      -0.0865
     72  CZ        23.9380   37.7800   24.7550 C.cat  54  ARG54       0.5346
     73  NH1       22.7610   37.3450   24.3320 N.pl3  54  ARG54       0.1354
     74  NH2       24.2060   39.0720   24.7750 N.pl3  54  ARG54       0.1354
     75  N         30.9120   28.5570   28.8900 N.3    60  LEU60      -0.1245
     76  CA        29.5630   28.6540   29.4490 C.3    60  LEU60       0.1561
     77  C         29.2500   27.5610   30.4490 C.2    60  LEU60       0.2260
     78  O         28.6430   27.7760   31.5430 O.2    60  LEU60      -0.2867
     79  CB        28.5090   28.6580   28.3680 C.3    60  LEU60       0.0270
     80  CG        27.0610   28.8290   28.8150 C.3    60  LEU60       0.0019
     81  CD1       26.8860   30.1880   29.5580 C.3    60  LEU60       0.0001
     82  CD2       26.1500   28.8150   27.5590 C.3    60  LEU60       0.0001
     83  N         30.7960   28.7900   33.5120 N.3    63  LEU63      -0.1245
     84  CA        30.1010   29.9590   34.0720 C.3    63  LEU63       0.1561
     85  C         28.8230   29.5630   34.7400 C.2    63  LEU63       0.2260
     86  O         28.4140   30.1340   35.7320 O.2    63  LEU63      -0.2867
     87  CB        29.8630   31.0240   33.0020 C.3    63  LEU63       0.0270
     88  CG        31.1320   31.6140   32.4070 C.3    63  LEU63       0.0019
     89  CD1       30.8020   32.5240   31.2180 C.3    63  LEU63       0.0001
     90  CD2       31.8570   32.4020   33.5060 C.3    63  LEU63       0.0001
     91  N         27.9200   30.5280   38.4730 N.3    67  LEU67      -0.1245
     92  CA        26.6220   31.1310   38.8260 C.3    67  LEU67       0.1561
     93  C         25.8940   30.3770   39.9250 C.2    67  LEU67       0.2260
     94  O         25.3770   30.9920   40.8310 O.2    67  LEU67      -0.2867
     95  CB        25.7630   31.2810   37.5780 C.3    67  LEU67       0.0270
     96  CG        26.2900   32.3650   36.6080 C.3    67  LEU67       0.0019
     97  CD1       25.6170   32.2030   35.2400 C.3    67  LEU67       0.0001
     98  CD2       26.0810   33.7880   37.1500 C.3    67  LEU67       0.0001
     99  N         18.2360   29.4980   34.3480 N.3    80  PHE80      -0.1241
    100  CA        18.3730   30.0720   33.0340 C.3    80  PHE80       0.1605
    101  C         17.0260   30.1480   32.3410 C.2    80  PHE80       0.2264
    102  O         16.2990   29.1500   32.1930 O.2    80  PHE80      -0.2867
    103  CB        19.3380   29.2750   32.1790 C.3    80  PHE80       0.0534
    104  CG        20.7760   29.7120   32.3510 C.ar   80  PHE80      -0.0203
    105  CD1       21.4490   29.4910   33.5470 C.ar   80  PHE80      -0.0042
    106  CD2       21.4080   30.3700   31.3240 C.ar   80  PHE80      -0.0042
    107  CE1       22.7540   29.9430   33.7170 C.ar   80  PHE80      -0.0003
    108  CE2       22.6960   30.8060   31.4560 C.ar   80  PHE80      -0.0003
    109  CZ        23.3720   30.6070   32.6710 C.ar   80  PHE80      -0.0000
    110  N         17.6140   35.2870   25.8520 N.3    84  TYR84      -0.1241
    111  CA        18.2280   36.4960   26.4530 C.3    84  TYR84       0.1605
    112  C         17.6820   37.7700   25.8220 C.2    84  TYR84       0.2264
    113  O         18.3630   38.7980   25.7790 O.2    84  TYR84      -0.2867
    114  CB        19.7480   36.4340   26.2570 C.3    84  TYR84       0.0534
    115  CG        20.3440   35.1920   26.7960 C.ar   84  TYR84      -0.0201
    116  CD1       20.2020   34.8760   28.1240 C.ar   84  TYR84      -0.0009
    117  CD2       21.0510   34.3130   25.9860 C.ar   84  TYR84      -0.0009
    118  CE1       20.7860   33.7280   28.6610 C.ar   84  TYR84       0.0417
    119  CE2       21.6530   33.1450   26.5100 C.ar   84  TYR84       0.0417
    120  CZ        21.4710   32.8600   27.8280 C.ar   84  TYR84       0.1957
    121  OH        22.0630   31.7230   28.3320 O.3    84  TYR84      -0.2866
@<TRIPOS>BOND
     1    50    51    1
     2    44    43    2
     3    43    42    1
     4    55    54    1
     5    51    54    1
     6    51    52    1
     7    45    42    1
     8    45    46    1
     9    53    52    2
    10    42    41    1
    11    49    48    1
    12    52    56   am
    13    48    47    1
    14    73    72    1
    15    66    67    2
    16    66    65    1
    17    72    74    1
    18    72    71    2
    19    47    46    1
    20    71    70    1
    21    36    35    2
    22    70    69    1
    23    68    65    1
    24    68    69    1
    25    35    34    1
    26    56    57    1
    27    65    64    1
    28   113   112    2
    29   112   111    1
    30   110   111    1
    31   117   119   ar
    32   117   115   ar
    33    64    58   am
    34   114   111    1
    35   114   115    1
    36    58    57    1
    37    58    59    2
    38    57    60    1
    39   119   120   ar
    40   115   116   ar
    41    34    33    1
    42    34    37    1
    43     8     6    1
    44    62    61    2
    45    38    37    1
    46    38    40    1
    47    38    39    1
    48    82    80    1
    49    60    61    1
    50   120   121    1
    51   120   118   ar
    52    61    63   am
    53   116   118   ar
    54    79    80    1
    55    79    76    1
    56     6     5    1
    57     6     7    1
    58     5     2    1
    59    80    81    1
    60    75    76    1
    61    76    77    1
    62     2     1    1
    63     2     3    1
    64    77    78    2
    65     4     3    2
    66     3     9   am
    67    89    88    1
    68   106   108   ar
    69   106   104   ar
    70   108   109   ar
    71     9    10    1
    72   103   104    1
    73   103   100    1
    74   102   101    2
    75   101   100    1
    76   104   105   ar
    77    88    87    1
    78    88    90    1
    79    10    13    1
    80    10    11    1
    81   109   107   ar
    82    13    14    1
    83    21    20    1
    84    21    15    1
    85    87    84    1
    86   100    99    1
    87    83    84    1
    88   105   107   ar
    89    20    19    1
    90    11    15   am
    91    11    12    2
    92    15    16    1
    93    84    85    1
    94    31    29   ar
    95    31    32   ar
    96    85    86    2
    97    29    27   ar
    98    19    16    1
    99    97    96    1
   100    16    17    1
   101    32    30   ar
   102    22    17   am
   103    22    23    1
   104    27    26    1
   105    27    28   ar
   106    26    23    1
   107    17    18    2
   108    96    98    1
   109    96    95    1
   110    23    24    1
   111    30    28   ar
   112    24    25    2
   113    95    92    1
   114    91    92    1
   115    92    93    1
   116    93    94    2
