@<TRIPOS>MOLECULE
tmp/2imgA00.pdb
 92 90 0 0 0
SMALL
GASTEIGER

@<TRIPOS>ATOM
      1  N          7.2220    7.1040    4.5820 N.3    64  ASP64      -0.1225
      2  CA         7.9210    8.2440    4.0030 C.3    64  ASP64       0.1805
      3  C          7.1540    8.7430    2.7940 C.2    64  ASP64       0.2598
      4  O          6.6090    7.9530    2.0290 O.2    64  ASP64      -0.2718
      5  CB         9.3230    7.8600    3.5250 C.3    64  ASP64       0.1424
      6  CG        10.3080    7.6740    4.6590 C.2    64  ASP64       0.3668
      7  OD1       10.3990    8.5600    5.5350 O.co2  64  ASP64      -0.2456
      8  OD2       11.0160    6.6460    4.6590 O.co2  64  ASP64      -0.2456
      9  N          7.1110   10.0600    2.6300 N.am   65  PHE65      -0.1962
     10  CA         6.4640   10.6750    1.4780 C.3    65  PHE65       0.1771
     11  C          4.9640   10.4240    1.3370 C.2    65  PHE65       0.2619
     12  O          4.4260   10.4750    0.2320 O.2    65  PHE65      -0.2715
     13  CB         7.2000   10.2230    0.2080 C.3    65  PHE65       0.0574
     14  CG         8.6830   10.0520    0.4080 C.ar   65  PHE65      -0.0200
     15  CD1        9.4570   11.0990    0.8940 C.ar   65  PHE65      -0.0042
     16  CD2        9.3000    8.8260    0.1570 C.ar   65  PHE65      -0.0042
     17  CE1       10.8280   10.9270    1.1310 C.ar   65  PHE65      -0.0003
     18  CE2       10.6650    8.6470    0.3920 C.ar   65  PHE65      -0.0003
     19  CZ        11.4280    9.6970    0.8800 C.ar   65  PHE65      -0.0000
     20  N          4.2940   10.1530    2.4540 N.am   66  CYS66      -0.1968
     21  CA         2.8500    9.9290    2.4590 C.3    66  CYS66       0.1712
     22  C          2.2510   10.8030    3.5530 C.2    66  CYS66       0.2296
     23  O          2.9560   11.2290    4.4630 O.2    66  CYS66      -0.2864
     24  CB         2.5230    8.4660    2.7670 C.3    66  CYS66       0.0983
     25  SG         3.2450    7.3030    1.6110 S.3    66  CYS66      -0.0798
     26  N          9.8350   13.8530   12.2840 N.3    94  CYS94      -0.1221
     27  CA         9.7650   12.9050   11.1830 C.3    94  CYS94       0.1808
     28  C         11.2180   12.8100   10.7150 C.2    94  CYS94       0.2601
     29  O         12.1250   12.8980   11.5410 O.2    94  CYS94      -0.2717
     30  CB         8.8090   13.3630   10.0600 C.3    94  CYS94       0.0970
     31  SG         9.1240   14.9580    9.2800 S.3    94  CYS94      -0.0800
     32  N         11.4650   12.6220    9.4260 N.am   95  ALA95      -0.1965
     33  CA        12.8480   12.5300    8.9650 C.3    95  ALA95       0.1728
     34  C         13.5030   13.9080    8.8710 C.2    95  ALA95       0.2616
     35  O         14.5650   14.1370    9.4480 O.2    95  ALA95      -0.2715
     36  CB        12.9130   11.8200    7.6180 C.3    95  ALA95       0.0334
     37  N         12.8680   14.8310    8.1530 N.am   96  LEU96      -0.1963
     38  CA        13.4270   16.1720    8.0020 C.3    96  LEU96       0.1728
     39  C         12.6900   17.2360    8.8310 C.2    96  LEU96       0.2617
     40  O         13.1770   18.3560    8.9890 O.2    96  LEU96      -0.2715
     41  CB        13.4380   16.5660    6.5180 C.3    96  LEU96       0.0311
     42  CG        14.2070   15.5970    5.6070 C.3    96  LEU96       0.0022
     43  CD1       14.0210   15.9910    4.1550 C.3    96  LEU96       0.0001
     44  CD2       15.6860   15.5980    5.9920 C.3    96  LEU96       0.0001
     45  N         11.5130   16.8830    9.3410 N.am   97  GLY97      -0.1940
     46  CA        10.7510   17.8100   10.1580 C.3    97  GLY97       0.2014
     47  C          9.9430   18.8530    9.4110 C.2    97  GLY97       0.2639
     48  O          9.5110   19.8400   10.0060 O.2    97  GLY97      -0.2714
     49  N          9.7240   18.6340    8.1170 N.am   98  PHE98      -0.1959
     50  CA         8.9620   19.5750    7.3040 C.3    98  PHE98       0.1771
     51  C          7.6380   19.0280    6.7580 C.2    98  PHE98       0.2620
     52  O          6.6200   19.7070    6.8140 O.2    98  PHE98      -0.2715
     53  CB         9.8150   20.0600    6.1310 C.3    98  PHE98       0.0574
     54  CG        10.9860   20.9130    6.5380 C.ar   98  PHE98      -0.0200
     55  CD1       10.7890   22.1800    7.0770 C.ar   98  PHE98      -0.0042
     56  CD2       12.2900   20.4570    6.3550 C.ar   98  PHE98      -0.0042
     57  CE1       11.8740   22.9850    7.4240 C.ar   98  PHE98      -0.0003
     58  CE2       13.3800   21.2530    6.7000 C.ar   98  PHE98      -0.0003
     59  CZ        13.1710   22.5200    7.2340 C.ar   98  PHE98      -0.0000
     60  N          7.6690   17.8110    6.2220 N.am   99  GLY99      -0.1940
     61  CA         6.4800   17.2090    5.6410 C.3    99  GLY99       0.2014
     62  C          5.4650   16.6710    6.6280 C.2    99  GLY99       0.2638
     63  O          4.4990   17.3510    6.9570 O.2    99  GLY99      -0.2714
     64  N          5.6760   15.4410    7.0880 N.am  100  ARG100     -0.1977
     65  CA         4.7750   14.8070    8.0410 C.3   100  ARG100      0.1597
     66  C          4.6840   15.6360    9.3230 C.2   100  ARG100      0.2287
     67  O          3.5980   15.8290    9.8730 O.2   100  ARG100     -0.2864
     68  CB         5.2600   13.3810    8.3340 C.3   100  ARG100      0.0334
     69  CG         5.1010   12.4380    7.1390 C.3   100  ARG100      0.0492
     70  CD         5.9230   11.1520    7.2730 C.3   100  ARG100      0.2205
     71  NE         7.3570   11.4050    7.1690 N.pl3 100  ARG100     -0.0865
     72  CZ         8.2940   10.4690    7.2310 C.cat 100  ARG100      0.5346
     73  NH1        7.9540    9.1970    7.4020 N.pl3 100  ARG100      0.1354
     74  NH2        9.5730   10.8050    7.1060 N.pl3 100  ARG100      0.1354
     75  N          5.2080   20.8520    2.0000 N.3   132  GLU132     -0.1245
     76  CA         5.5000   21.1170    0.5910 C.3   132  GLU132      0.1567
     77  C          4.6140   20.3990   -0.4210 C.2   132  GLU132      0.2260
     78  O          4.4100   20.8980   -1.5280 O.2   132  GLU132     -0.2867
     79  CB         6.9650   20.7770    0.2780 C.3   132  GLU132      0.0388
     80  CG         7.3580   19.3480    0.6720 C.3   132  GLU132      0.1160
     81  CD         8.6700   18.8910    0.0570 C.2   132  GLU132      0.3649
     82  OE1        9.6190   19.7020   -0.0250 O.co2 132  GLU132     -0.2457
     83  OE2        8.7590   17.7030   -0.3330 O.co2 132  GLU132     -0.2457
     84  N         -0.0190   16.5730    1.5600 N.3   136  GLN136     -0.1245
     85  CA         0.1630   17.1130    2.9040 C.3   136  GLN136      0.1566
     86  C         -0.8630   18.2240    3.1560 C.2   136  GLN136      0.2260
     87  O         -1.5060   18.2500    4.2050 O.2   136  GLN136     -0.2867
     88  CB         1.5900   17.6480    3.0750 C.3   136  GLN136      0.0367
     89  CG         2.6320   16.5450    3.2080 C.3   136  GLN136      0.0905
     90  CD         4.0560   17.0360    2.9940 C.2   136  GLN136      0.2608
     91  OE1        4.3000   18.2320    2.7900 O.2   136  GLN136     -0.2717
     92  NE2        5.0030   16.1110    3.0400 N.am  136  GLN136     -0.0878
@<TRIPOS>BOND
     1    78    77    2
     2    77    76    1
     3    83    81   ar
     4    82    81   ar
     5    81    80    1
     6    16    18   ar
     7    16    14   ar
     8    13    14    1
     9    13    10    1
    10    12    11    2
    11    79    76    1
    12    79    80    1
    13    18    19   ar
    14    14    15   ar
    15    76    75    1
    16    19    17   ar
    17    15    17   ar
    18    11    10    1
    19    11    20   am
    20    10     9    1
    21    84    85    1
    22    25    24    1
    23     4     3    2
    24    20    21    1
    25    21    24    1
    26    21    22    1
    27     9     3   am
    28    91    90    2
    29     3     2    1
    30    85    88    1
    31    85    86    1
    32    90    92   am
    33    90    89    1
    34    88    89    1
    35    86    87    2
    36     5     2    1
    37     5     6    1
    38    22    23    2
    39     2     1    1
    40    43    42    1
    41     6     8   ar
    42     6     7   ar
    43    42    44    1
    44    42    41    1
    45    61    60    1
    46    61    62    1
    47    53    54    1
    48    53    50    1
    49    60    51   am
    50    56    54   ar
    51    56    58   ar
    52    41    38    1
    53    54    55   ar
    54    62    63    2
    55    62    64   am
    56    58    59   ar
    57    51    52    2
    58    51    50    1
    59    55    57   ar
    60    64    65    1
    61    74    72    1
    62    69    70    1
    63    69    68    1
    64    71    72    2
    65    71    70    1
    66    72    73    1
    67    59    57   ar
    68    50    49    1
    69    36    33    1
    70    38    37    1
    71    38    39    1
    72    65    68    1
    73    65    66    1
    74    49    47   am
    75    37    34   am
    76    39    40    2
    77    39    45   am
    78    34    33    1
    79    34    35    2
    80    33    32    1
    81    31    30    1
    82    66    67    2
    83    45    46    1
    84    47    48    2
    85    47    46    1
    86    32    28   am
    87    30    27    1
    88    28    27    1
    89    28    29    2
    90    27    26    1
