@<TRIPOS>MOLECULE
tmp/2imkB00.pdb
 221 218 0 0 0
SMALL
GASTEIGER

@<TRIPOS>ATOM
      1  N         -2.3830   14.7810   36.5480 N.3     9  LEU9       -0.1245
      2  CA        -1.8520   14.0480   37.6780 C.3     9  LEU9        0.1561
      3  C         -0.8610   14.9970   38.3010 C.2     9  LEU9        0.2260
      4  O         -0.0070   15.5300   37.6090 O.2     9  LEU9       -0.2867
      5  CB        -1.1860   12.7130   37.2350 C.3     9  LEU9        0.0270
      6  CG        -0.5320   11.8290   38.2980 C.3     9  LEU9        0.0019
      7  CD1       -1.5540   11.2980   39.2810 C.3     9  LEU9        0.0001
      8  CD2        0.2550   10.6820   37.6450 C.3     9  LEU9        0.0001
      9  N          1.6760   14.6130   40.2260 N.3    11  LEU11      -0.1231
     10  CA         3.0730   14.2500   40.0560 C.3    11  LEU11       0.1693
     11  C          3.7370   14.6500   38.6920 C.2    11  LEU11       0.2593
     12  O          4.9550   14.7750   38.5790 O.2    11  LEU11      -0.2718
     13  CB         3.1600   12.7340   40.2320 C.3    11  LEU11       0.0284
     14  CG         4.1300   12.1190   41.2250 C.3    11  LEU11       0.0019
     15  CD1        4.1420   12.7410   42.6480 C.3    11  LEU11       0.0001
     16  CD2        3.7540   10.5770   41.2030 C.3    11  LEU11       0.0001
     17  N          2.9250   14.8080   37.6800 N.am   12  SER12      -0.1939
     18  CA         3.3970   15.1120   36.3060 C.3    12  SER12       0.2040
     19  C          3.8390   16.5790   36.2100 C.2    12  SER12       0.2485
     20  O          3.0020   17.4720   36.5110 O.2    12  SER12      -0.2729
     21  CB         2.2430   14.8760   35.3680 C.3    12  SER12       0.2129
     22  OG         2.5410   15.3030   34.0490 O.3    12  SER12      -0.2179
     23  N          5.1270   16.8330   35.8170 N.am   13  PRO13      -0.2715
     24  CA         5.6190   18.2050   35.6140 C.3    13  PRO13       0.1521
     25  C          4.8540   19.0790   34.5920 C.2    13  PRO13       0.2440
     26  O          4.4340   20.1710   34.9450 O.2    13  PRO13      -0.2731
     27  CB         7.0570   18.0330   35.1990 C.3    13  PRO13       0.0310
     28  CG         7.4740   16.6400   35.6530 C.3    13  PRO13       0.0237
     29  CD         6.1870   15.8230   35.6090 C.3    13  PRO13       0.0939
     30  N          4.6730   18.6310   33.3270 N.am   14  PRO14      -0.2727
     31  CA         3.8490   19.5230   32.5320 C.3    14  PRO14       0.1402
     32  C          2.4340   19.7740   33.0960 C.2    14  PRO14       0.2269
     33  O          1.8800   20.8460   32.8580 O.2    14  PRO14      -0.2865
     34  CB         3.8330   18.8490   31.1280 C.3    14  PRO14       0.0296
     35  CG         4.1140   17.3470   31.3820 C.3    14  PRO14       0.0237
     36  CD         5.1090   17.4550   32.5590 C.3    14  PRO14       0.0939
     37  N         -1.0280    7.5450   35.4660 N.3    36  LEU36      -0.1231
     38  CA        -0.1150    6.8840   34.5090 C.3    36  LEU36       0.1693
     39  C          0.4070    5.5080   35.0050 C.2    36  LEU36       0.2591
     40  O          0.7010    4.6150   34.2190 O.2    36  LEU36      -0.2718
     41  CB         1.0930    7.8080   34.2500 C.3    36  LEU36       0.0284
     42  CG         0.8230    9.1950   33.6050 C.3    36  LEU36       0.0019
     43  CD1        2.0540    9.6150   32.8220 C.3    36  LEU36       0.0001
     44  CD2       -0.3380    9.2080   32.6870 C.3    36  LEU36       0.0001
     45  N          0.5390    5.4110   36.3220 N.am   37  LEU37      -0.1980
     46  CA         1.0690    4.2880   37.0290 C.3    37  LEU37       0.1596
     47  C          0.1190    3.0790   37.0040 C.2    37  LEU37       0.2287
     48  O          0.5630    1.9320   37.0100 O.2    37  LEU37      -0.2864
     49  CB         1.3730    4.7400   38.4570 C.3    37  LEU37       0.0297
     50  CG         2.5310    5.7600   38.4740 C.3    37  LEU37       0.0022
     51  CD1        2.9890    5.9750   39.9250 C.3    37  LEU37       0.0001
     52  CD2        3.7330    5.4040   37.5450 C.3    37  LEU37       0.0001
     53  N         -3.7420    6.5550   31.0650 N.3    41  HIS41      -0.1226
     54  CA        -3.4760    7.2320   29.7770 C.3    41  HIS41       0.1752
     55  C         -3.5600    6.3920   28.5160 C.2    41  HIS41       0.2595
     56  O         -3.6400    6.9190   27.4070 O.2    41  HIS41      -0.2718
     57  CB        -2.1120    7.9020   29.8260 C.3    41  HIS41       0.0759
     58  CG        -0.9700    6.9520   29.9310 C.ar   41  HIS41       0.0818
     59  ND1       -0.5930    6.3700   31.1190 N.ar   41  HIS41      -0.2268
     60  CD2       -0.0990    6.5100   28.9980 C.ar   41  HIS41       0.1154
     61  CE1        0.4660    5.6050   30.9150 C.ar   41  HIS41       0.1986
     62  NE2        0.7890    5.6790   29.6370 N.ar   41  HIS41      -0.2212
     63  N         -3.5010    5.0750   28.6970 N.am   42  LEU42      -0.1980
     64  CA        -3.6520    4.1270   27.6000 C.3    42  LEU42       0.1596
     65  C         -5.0860    3.5420   27.5430 C.2    42  LEU42       0.2287
     66  O         -5.4430    2.9200   26.5480 O.2    42  LEU42      -0.2864
     67  CB        -2.5710    3.0410   27.6960 C.3    42  LEU42       0.0297
     68  CG        -1.0730    3.4860   27.7320 C.3    42  LEU42       0.0022
     69  CD1       -0.2130    2.4660   28.4820 C.3    42  LEU42       0.0001
     70  CD2       -0.4820    3.7880   26.3510 C.3    42  LEU42       0.0001
     71  N         -1.6230   10.9210   21.1410 N.3    52  GLN52      -0.1231
     72  CA        -0.2700   10.8080   21.6530 C.3    52  GLN52       0.1698
     73  C         -0.3210   10.2710   23.0610 C.2    52  GLN52       0.2592
     74  O          0.7300   10.0430   23.7020 O.2    52  GLN52      -0.2718
     75  CB         0.4700   12.1520   21.5640 C.3    52  GLN52       0.0381
     76  CG         0.8190   12.5780   20.0850 C.3    52  GLN52       0.0905
     77  CD         1.1760   14.0490   19.8950 C.2    52  GLN52       0.2608
     78  OE1        1.2110   14.5640   18.7360 O.2    52  GLN52      -0.2717
     79  NE2        1.4330   14.7510   20.9980 N.am   52  GLN52      -0.0878
     80  N         -1.5480   10.0730   23.5700 N.am   53  HIS53      -0.1962
     81  CA        -1.7390    9.5260   24.9190 C.3    53  HIS53       0.1787
     82  C         -0.8140   10.1290   26.0440 C.2    53  HIS53       0.2621
     83  O         -0.2990    9.4250   26.9020 O.2    53  HIS53      -0.2715
     84  CB        -1.7820    7.9560   24.8800 C.3    53  HIS53       0.0785
     85  CG        -0.6200    7.3130   24.1670 C.ar   53  HIS53       0.0821
     86  ND1        0.5700    7.0110   24.8040 N.ar   53  HIS53      -0.2267
     87  CD2       -0.4700    6.9120   22.8750 C.ar   53  HIS53       0.1154
     88  CE1        1.4080    6.4800   23.9270 C.ar   53  HIS53       0.1986
     89  NE2        0.8100    6.4290   22.7450 N.ar   53  HIS53      -0.2212
     90  N         -0.6460   11.4650   26.0530 N.am   54  THR54      -0.1937
     91  CA         0.0900   12.1380   27.1150 C.3    54  THR54       0.2028
     92  C         -0.8800   13.0410   27.9250 C.2    54  THR54       0.2642
     93  O         -1.9240   13.4650   27.4200 O.2    54  THR54      -0.2714
     94  CB         1.2710   13.0330   26.5610 C.3    54  THR54       0.1808
     95  OG1        0.7610   13.9470   25.5950 O.3    54  THR54      -0.2208
     96  CG2        2.3700   12.2230   25.8600 C.3    54  THR54       0.0379
     97  N         -0.5150   13.3230   29.1670 N.am   55  ILE55      -0.1963
     98  CA        -1.1350   14.3960   29.9610 C.3    55  ILE55       0.1712
     99  C         -0.1740   15.6490   30.0230 C.2    55  ILE55       0.2458
    100  O          1.0640   15.4780   29.8880 O.2    55  ILE55      -0.2730
    101  CB        -1.5600   13.9020   31.4020 C.3    55  ILE55       0.0289
    102  CG1       -0.4010   13.1940   32.1080 C.3    55  ILE55       0.0022
    103  CG2       -2.7720   12.9880   31.3180 C.3    55  ILE55       0.0023
    104  CD1       -0.6210   12.9650   33.6250 C.3    55  ILE55       0.0001
    105  N         -0.7010   16.8740   30.2460 N.am   56  PRO56      -0.2727
    106  CA        -2.1190   17.2710   30.4360 C.3    56  PRO56       0.1402
    107  C         -2.8940   17.3520   29.1350 C.2    56  PRO56       0.2269
    108  O         -2.2890   17.5350   28.0450 O.2    56  PRO56      -0.2865
    109  CB        -2.0400   18.6470   31.1070 C.3    56  PRO56       0.0296
    110  CG        -0.6850   19.2030   30.7550 C.3    56  PRO56       0.0237
    111  CD         0.2260   18.0130   30.3850 C.3    56  PRO56       0.0939
    112  N         -1.2470   19.1180   25.2160 N.3    67  GLU67      -0.1231
    113  CA         0.1370   19.6560   25.3580 C.3    67  GLU67       0.1699
    114  C          0.2280   20.9130   26.2390 C.2    67  GLU67       0.2593
    115  O         -0.3550   21.9560   25.9060 O.2    67  GLU67      -0.2718
    116  CB         0.7560   19.9000   23.9700 C.3    67  GLU67       0.0402
    117  CG         2.2440   19.6600   23.9320 C.3    67  GLU67       0.1161
    118  CD         3.0150   20.8600   24.4000 C.2    67  GLU67       0.3649
    119  OE1        4.1180   20.6780   24.9710 O.co2  67  GLU67      -0.2457
    120  OE2        2.4800   21.9840   24.2440 O.co2  67  GLU67      -0.2457
    121  N          0.9880   20.8030   27.3300 N.am   68  SER68      -0.1938
    122  CA         1.0820   21.8130   28.3460 C.3    68  SER68       0.2055
    123  C          1.3630   23.2050   27.7710 C.2    68  SER68       0.2643
    124  O          0.6920   24.1480   28.1600 O.2    68  SER68      -0.2714
    125  CB         2.1030   21.4320   29.4690 C.3    68  SER68       0.2130
    126  OG         3.4450   21.5840   29.0010 O.3    68  SER68      -0.2179
    127  N          2.3050   23.3640   26.8340 N.am   69  HIS69      -0.1973
    128  CA         2.6810   24.7200   26.4200 C.3    69  HIS69       0.1656
    129  C          1.5780   25.3190   25.5690 C.2    69  HIS69       0.2291
    130  O          1.2630   26.5190   25.7140 O.2    69  HIS69      -0.2864
    131  CB         4.0440   24.7290   25.6550 C.3    69  HIS69       0.0771
    132  CG         5.1490   24.0020   26.3770 C.ar   69  HIS69       0.0820
    133  ND1        5.3570   22.6520   26.2430 N.ar   69  HIS69      -0.2267
    134  CD2        6.0600   24.4350   27.2800 C.ar   69  HIS69       0.1154
    135  CE1        6.3550   22.2810   27.0270 C.ar   69  HIS69       0.1986
    136  NE2        6.8100   23.3520   27.6480 N.ar   69  HIS69      -0.2212
    137  N         10.8050   22.1460   26.4330 N.3   104  SER104     -0.1217
    138  CA        10.2860   20.8720   25.9100 C.3   104  SER104      0.1889
    139  C         11.4020   20.0170   25.2240 C.2   104  SER104      0.2288
    140  O         11.5560   18.7790   25.5170 O.2   104  SER104     -0.2866
    141  CB         9.0360   21.1420   25.0640 C.3   104  SER104      0.2089
    142  OG         9.3510   21.6270   23.7710 O.3   104  SER104     -0.2183
    143  N         12.7710   19.1200   29.7490 N.3   108  PHE108     -0.1241
    144  CA        11.8410   18.0060   29.9320 C.3   108  PHE108      0.1605
    145  C         12.2760   16.7010   29.2190 C.2   108  PHE108      0.2264
    146  O         12.2390   15.6570   29.8470 O.2   108  PHE108     -0.2867
    147  CB        10.4360   18.4080   29.5450 C.3   108  PHE108      0.0534
    148  CG         9.4510   17.3210   29.7010 C.ar  108  PHE108     -0.0203
    149  CD1        9.0350   16.5960   28.6160 C.ar  108  PHE108     -0.0042
    150  CD2        8.9100   17.0160   30.9710 C.ar  108  PHE108     -0.0042
    151  CE1        8.0900   15.5560   28.7620 C.ar  108  PHE108     -0.0003
    152  CE2        8.0140   15.9850   31.1420 C.ar  108  PHE108     -0.0003
    153  CZ         7.5750   15.2500   30.0550 C.ar  108  PHE108     -0.0000
    154  N         15.1640   15.1000   31.1860 N.3   111  MET111     -0.1230
    155  CA        14.5080   14.5100   32.3600 C.3   111  MET111      0.1702
    156  C         13.7540   13.1910   32.0210 C.2   111  MET111      0.2592
    157  O         13.9500   12.1660   32.6790 O.2   111  MET111     -0.2718
    158  CB        13.4910   15.4890   32.9290 C.3   111  MET111      0.0401
    159  CG        12.9840   15.0550   34.2710 C.3   111  MET111      0.0596
    160  SD        11.4040   15.7490   34.7850 S.3   111  MET111     -0.1393
    161  CE        10.3650   14.6500   33.7850 C.3   111  MET111      0.0692
    162  N         12.8660   13.2270   31.0160 N.am  112  ARG112     -0.1980
    163  CA        12.1540   12.0490   30.6030 C.3   112  ARG112      0.1597
    164  C         13.1290   10.9060   30.1990 C.2   112  ARG112      0.2287
    165  O         12.9030    9.7500   30.5950 O.2   112  ARG112     -0.2864
    166  CB        11.2210   12.3730   29.4720 C.3   112  ARG112      0.0334
    167  CG        10.0520   11.4030   29.4320 C.3   112  ARG112      0.0492
    168  CD         9.1470   11.6260   28.1830 C.3   112  ARG112      0.2205
    169  NE         8.6730   10.3250   27.6720 N.pl3 112  ARG112     -0.0865
    170  CZ         7.4070   10.0350   27.3670 C.cat 112  ARG112      0.5346
    171  NH1        7.0780    8.8140   26.9560 N.pl3 112  ARG112      0.1354
    172  NH2        6.4720   10.9660   27.4350 N.pl3 112  ARG112      0.1354
    173  N         13.9820    9.5150   33.6060 N.3   115  PHE115     -0.1241
    174  CA        12.9380    9.0170   34.5030 C.3   115  PHE115      0.1605
    175  C         12.1960    7.8340   33.8990 C.2   115  PHE115      0.2264
    176  O         11.8330    6.9120   34.6300 O.2   115  PHE115     -0.2867
    177  CB        11.9200   10.1360   34.8760 C.3   115  PHE115      0.0534
    178  CG        12.4320   11.1470   35.9140 C.ar  115  PHE115     -0.0203
    179  CD1       13.7640   11.1420   36.3390 C.ar  115  PHE115     -0.0042
    180  CD2       11.5600   12.1240   36.4390 C.ar  115  PHE115     -0.0042
    181  CE1       14.2390   12.0550   37.3060 C.ar  115  PHE115     -0.0003
    182  CE2       11.9960   13.0570   37.4080 C.ar  115  PHE115     -0.0003
    183  CZ        13.3520   13.0310   37.8530 C.ar  115  PHE115     -0.0000
    184  N         10.6310    4.5020   35.7120 N.3   119  LEU119     -0.1231
    185  CA         9.2320    4.4670   36.1190 C.3   119  LEU119      0.1693
    186  C          8.3960    3.4490   35.3180 C.2   119  LEU119      0.2592
    187  O          7.4360    2.8550   35.8230 O.2   119  LEU119     -0.2718
    188  CB         8.6460    5.8570   35.9770 C.3   119  LEU119      0.0284
    189  CG         9.2510    6.9850   36.8300 C.3   119  LEU119      0.0019
    190  CD1        8.4220    8.2630   36.6130 C.3   119  LEU119      0.0001
    191  CD2        9.3630    6.6380   38.3560 C.3   119  LEU119      0.0001
    192  N          8.7960    3.2440   34.0680 N.am  120  PHE120     -0.1976
    193  CA         7.9960    2.5330   33.0970 C.3   120  PHE120      0.1639
    194  C          8.6680    1.3000   32.4600 C.2   120  PHE120      0.2290
    195  O          7.9660    0.3630   32.0320 O.2   120  PHE120     -0.2864
    196  CB         7.4990    3.5240   32.0120 C.3   120  PHE120      0.0560
    197  CG         6.5220    4.5180   32.5540 C.ar  120  PHE120     -0.0200
    198  CD1        5.2000    4.1290   32.8460 C.ar  120  PHE120     -0.0042
    199  CD2        6.9440    5.8080   32.8830 C.ar  120  PHE120     -0.0042
    200  CE1        4.2930    5.0200   33.4080 C.ar  120  PHE120     -0.0003
    201  CE2        6.0550    6.7060   33.4290 C.ar  120  PHE120     -0.0003
    202  CZ         4.7040    6.3010   33.6970 C.ar  120  PHE120     -0.0000
    203  N          7.8960   13.6630   43.0670 N.3   207  LEU207     -0.1245
    204  CA         8.2500   12.9740   41.8260 C.3   207  LEU207      0.1561
    205  C          9.7570   12.5460   41.8890 C.2   207  LEU207      0.2260
    206  O         10.0840   11.3910   41.5960 O.2   207  LEU207     -0.2867
    207  CB         7.9310   13.8150   40.5730 C.3   207  LEU207      0.0270
    208  CG         8.2750   13.0360   39.2880 C.3   207  LEU207      0.0019
    209  CD1        7.5500   11.6350   39.0980 C.3   207  LEU207      0.0001
    210  CD2        8.1050   13.8530   38.0290 C.3   207  LEU207      0.0001
    211  N         10.0040    9.6930   44.3210 N.3   210  PHE210     -0.1241
    212  CA         9.3560    8.5010   43.7940 C.3   210  PHE210      0.1605
    213  C         10.2600    7.7380   42.7890 C.2   210  PHE210      0.2264
    214  O         10.2790    6.4920   42.7640 O.2   210  PHE210     -0.2867
    215  CB         7.9800    8.8530   43.2130 C.3   210  PHE210      0.0534
    216  CG         7.2500    7.6880   42.6380 C.ar  210  PHE210     -0.0203
    217  CD1        6.9380    6.5840   43.4410 C.ar  210  PHE210     -0.0042
    218  CD2        6.8810    7.6780   41.2770 C.ar  210  PHE210     -0.0042
    219  CE1        6.2730    5.4830   42.9090 C.ar  210  PHE210     -0.0003
    220  CE2        6.2250    6.5880   40.7190 C.ar  210  PHE210     -0.0003
    221  CZ         5.9180    5.4730   41.5410 C.ar  210  PHE210     -0.0000
@<TRIPOS>BOND
     1    78    77    2
     2    77    76    1
     3    77    79   am
     4    76    75    1
     5    71    72    1
     6    75    72    1
     7    72    73    1
     8    89    87   ar
     9    89    88   ar
    10    87    85   ar
    11    73    80   am
    12    73    74    2
    13    80    81    1
    14   142   141    1
    15    88    86   ar
    16   117   116    1
    17   117   118    1
    18   116   113    1
    19    85    86   ar
    20    85    84    1
    21   120   118   ar
    22   118   119   ar
    23    84    81    1
    24    81    82    1
    25   141   138    1
    26   112   113    1
    27   139   140    2
    28   139   138    1
    29   113   114    1
    30   129   130    2
    31   129   128    1
    32    95    94    1
    33   131   132    1
    34   131   128    1
    35    96    94    1
    36   115   114    2
    37   138   137    1
    38    82    90   am
    39    82    83    2
    40    90    91    1
    41   114   121   am
    42   133   132   ar
    43   133   135   ar
    44    70    68    1
    45   132   134   ar
    46   128   127    1
    47    66    65    2
    48    94    91    1
    49   127   123   am
    50   171   170    1
    51   135   136   ar
    52    91    92    1
    53   134   136   ar
    54   121   122    1
    55   170   172    1
    56   170   169    2
    57    56    55    2
    58    93    92    2
    59    65    64    1
    60    64    67    1
    61    64    63    1
    62   169   168    1
    63    67    68    1
    64    68    69    1
    65   123   124    2
    66   123   122    1
    67    92    97   am
    68   108   107    2
    69   168   167    1
    70   122   125    1
    71    55    63   am
    72    55    54    1
    73   149   151   ar
    74   149   148   ar
    75   151   153   ar
    76    60    62   ar
    77    60    58   ar
    78   126   125    1
    79   107   106    1
    80    97    98    1
    81   145   146    2
    82   145   144    1
    83   167   166    1
    84   166   163    1
    85   147   148    1
    86   147   144    1
    87    62    61   ar
    88   148   150   ar
    89   143   144    1
    90    54    57    1
    91    54    53    1
    92    57    58    1
    93   100    99    2
    94    58    59   ar
    95    98    99    1
    96    98   101    1
    97    99   105   am
    98   153   152   ar
    99   164   165    2
   100   164   163    1
   101   105   111    1
   102   105   106    1
   103   111   110    1
   104   106   109    1
   105   163   162    1
   106   110   109    1
   107    61    59   ar
   108   150   152   ar
   109   162   156   am
   110    34    35    1
   111    34    31    1
   112   154   155    1
   113   103   101    1
   114    35    36    1
   115   101   102    1
   116   196   197    1
   117   196   193    1
   118   156   155    1
   119   156   157    2
   120   195   194    2
   121   102   104    1
   122   155   158    1
   123   194   193    1
   124    31    32    1
   125    31    30    1
   126   197   198   ar
   127   197   199   ar
   128    36    30    1
   129    44    42    1
   130    43    42    1
   131   198   200   ar
   132    33    32    2
   133   199   201   ar
   134   158   159    1
   135   193   192    1
   136    30    25   am
   137   200   202   ar
   138   201   202   ar
   139    42    41    1
   140   173   174    1
   141   161   160    1
   142   175   174    1
   143   175   176    2
   144    22    21    1
   145   192   186   am
   146    40    39    2
   147    41    38    1
   148   159   160    1
   149   174   177    1
   150    38    39    1
   151    38    37    1
   152    25    26    2
   153    25    24    1
   154   177   178    1
   155    39    45   am
   156    27    24    1
   157    27    28    1
   158   186   187    2
   159   186   185    1
   160    21    18    1
   161    29    28    1
   162    29    23    1
   163    24    23    1
   164   184   185    1
   165    23    19   am
   166   178   179   ar
   167   178   180   ar
   168   188   185    1
   169   188   189    1
   170    19    18    1
   171    19    20    2
   172    18    17    1
   173    45    46    1
   174   179   181   ar
   175   180   182   ar
   176     1     2    1
   177   190   189    1
   178   189   191    1
   179    47    48    2
   180    47    46    1
   181    46    49    1
   182     5     2    1
   183     5     6    1
   184   181   183   ar
   185   182   183   ar
   186    52    50    1
   187     4     3    2
   188     8     6    1
   189     2     3    1
   190    17    11   am
   191   210   208    1
   192     6     7    1
   193    49    50    1
   194    50    51    1
   195    12    11    2
   196    11    10    1
   197   209   208    1
   198   208   207    1
   199    10     9    1
   200    10    13    1
   201    13    14    1
   202   207   204    1
   203   220   218   ar
   204   220   221   ar
   205    16    14    1
   206    14    15    1
   207   218   216   ar
   208   221   219   ar
   209   206   205    2
   210   204   205    1
   211   204   203    1
   212   216   215    1
   213   216   217   ar
   214   214   213    2
   215   213   212    1
   216   219   217   ar
   217   215   212    1
   218   212   211    1
