@<TRIPOS>MOLECULE
tmp/2imlD00.pdb
 165 160 0 0 0
SMALL
GASTEIGER

@<TRIPOS>ATOM
      1  N          2.4180   15.9340   -9.3650 N.3    14  GLU14      -0.1245
      2  CA         0.9770   15.7290   -9.2910 C.3    14  GLU14       0.1567
      3  C          0.3120   16.8080  -10.1130 C.2    14  GLU14       0.2260
      4  O          0.4310   18.0100   -9.7890 O.2    14  GLU14      -0.2867
      5  CB         0.4880   15.7910   -7.8340 C.3    14  GLU14       0.0388
      6  CG         1.3640   15.0200   -6.8530 C.3    14  GLU14       0.1160
      7  CD         1.4070   13.5160   -7.0830 C.2    14  GLU14       0.3649
      8  OE1        0.5280   12.9570   -7.7860 O.co2  14  GLU14      -0.2457
      9  OE2        2.3170   12.8720   -6.5200 O.co2  14  GLU14      -0.2457
     10  N        -12.4180   14.3660  -19.6750 N.3    27  ASN27      -0.1225
     11  CA       -12.3630   13.7940  -18.3350 C.3    27  ASN27       0.1785
     12  C        -11.1590   14.4110  -17.6360 C.2    27  ASN27       0.2597
     13  O        -10.0670   14.4720  -18.2140 O.2    27  ASN27      -0.2718
     14  CB       -12.1720   12.2840  -18.3930 C.3    27  ASN27       0.1169
     15  CG       -12.1690   11.6520  -17.0160 C.2    27  ASN27       0.2627
     16  OD1      -11.1070   11.2500  -16.4870 O.2    27  ASN27      -0.2716
     17  ND2      -13.3390   11.6100  -16.3970 N.am   27  ASN27      -0.0877
     18  N        -11.3380   14.8530  -16.3930 N.am   28  ALA28      -0.1966
     19  CA       -10.2070   15.4180  -15.6420 C.3    28  ALA28       0.1728
     20  C        -10.0110   14.6280  -14.3460 C.2    28  ALA28       0.2616
     21  O        -10.9780   14.3350  -13.6370 O.2    28  ALA28      -0.2715
     22  CB       -10.4250   16.9050  -15.3450 C.3    28  ALA28       0.0334
     23  N         -8.7560   14.2980  -14.0350 N.am   29  ALA29      -0.1964
     24  CA        -8.4180   13.5130  -12.8390 C.3    29  ALA29       0.1713
     25  C         -6.9700   13.7580  -12.4280 C.2    29  ALA29       0.2458
     26  O         -6.1000   13.8240  -13.2960 O.2    29  ALA29      -0.2730
     27  CB        -8.6050   12.0240  -13.1200 C.3    29  ALA29       0.0333
     28  N         -6.6900   13.8530  -11.1190 N.am   30  PRO30      -0.2716
     29  CA        -5.2790   13.9690  -10.7200 C.3    30  PRO30       0.1536
     30  C         -4.4910   12.7050  -11.0150 C.2    30  PRO30       0.2598
     31  O         -4.9770   11.5970  -10.7610 O.2    30  PRO30      -0.2715
     32  CB        -5.3420   14.1910   -9.1940 C.3    30  PRO30       0.0310
     33  CG        -6.7550   14.6020   -8.9140 C.3    30  PRO30       0.0237
     34  CD        -7.6030   13.9030   -9.9650 C.3    30  PRO30       0.0939
     35  N         -3.2830   12.8720  -11.5350 N.am   31  ILE31      -0.1964
     36  CA        -2.3930   11.7470  -11.8260 C.3    31  ILE31       0.1727
     37  C         -0.9680   12.2240  -11.5370 C.2    31  ILE31       0.2616
     38  O         -0.6680   13.4260  -11.6680 O.2    31  ILE31      -0.2715
     39  CB        -2.5130   11.3070  -13.3280 C.3    31  ILE31       0.0290
     40  CG1       -3.9200   10.7690  -13.6580 C.3    31  ILE31       0.0022
     41  CG2       -1.4160   10.3140  -13.7400 C.3    31  ILE31       0.0023
     42  CD1       -4.2760    9.4110  -13.0470 C.3    31  ILE31       0.0001
     43  N         -0.0870   11.3040  -11.1530 N.am   32  GLY32      -0.1955
     44  CA         1.3270   11.6610  -10.9840 C.3    32  GLY32       0.1869
     45  C          2.1280   11.3760  -12.2420 C.2    32  GLY32       0.2309
     46  O          2.1360   10.2440  -12.7410 O.2    32  GLY32      -0.2863
     47  N          1.8080    5.7210  -13.9730 N.3    46  LYS46      -0.1231
     48  CA         1.3100    4.3870  -13.6470 C.3    46  LYS46       0.1693
     49  C         -0.1610    4.5390  -13.3290 C.2    46  LYS46       0.2592
     50  O         -0.5390    5.3210  -12.4550 O.2    46  LYS46      -0.2718
     51  CB         2.0820    3.7650  -12.4780 C.3    46  LYS46       0.0285
     52  CG         3.5710    3.5650  -12.7750 C.3    46  LYS46       0.0035
     53  CD         4.3520    3.0940  -11.5530 C.3    46  LYS46       0.0206
     54  CE         5.7630    2.7090  -11.9570 C.3    46  LYS46       0.1093
     55  NZ         6.4970    2.0270  -10.8500 N.3    46  LYS46      -0.1314
     56  N         -0.9960    3.8270  -14.0760 N.am   47  LEU47      -0.1966
     57  CA        -2.4330    4.0180  -13.9730 C.3    47  LEU47       0.1728
     58  C         -3.1620    2.7380  -13.6100 C.2    47  LEU47       0.2616
     59  O         -2.9530    1.7030  -14.2320 O.2    47  LEU47      -0.2715
     60  CB        -2.9960    4.5230  -15.3010 C.3    47  LEU47       0.0311
     61  CG        -2.3790    5.8140  -15.8430 C.3    47  LEU47       0.0022
     62  CD1       -2.9110    6.0790  -17.2340 C.3    47  LEU47       0.0001
     63  CD2       -2.6860    6.9590  -14.9270 C.3    47  LEU47       0.0001
     64  N         -4.0210    2.8370  -12.5990 N.am   48  TYR48      -0.1974
     65  CA        -5.0010    1.7970  -12.3300 C.3    48  TYR48       0.1639
     66  C         -6.0890    1.8260  -13.4090 C.2    48  TYR48       0.2290
     67  O         -6.0730    2.7060  -14.2820 O.2    48  TYR48      -0.2864
     68  CB        -5.5840    1.9720  -10.9270 C.3    48  TYR48       0.0560
     69  CG        -4.6090    1.5430   -9.8580 C.ar   48  TYR48      -0.0198
     70  CD1       -4.5330    0.2080   -9.4680 C.ar   48  TYR48      -0.0009
     71  CD2       -3.7310    2.4600   -9.2730 C.ar   48  TYR48      -0.0009
     72  CE1       -3.6320   -0.2160   -8.4970 C.ar   48  TYR48       0.0417
     73  CE2       -2.8190    2.0470   -8.2880 C.ar   48  TYR48       0.0417
     74  CZ        -2.7820    0.7050   -7.9090 C.ar   48  TYR48       0.1957
     75  OH        -1.8910    0.2610   -6.9500 O.3    48  TYR48      -0.2866
     76  N         -8.8420    3.0480  -14.5600 N.3    50  ASN50      -0.1225
     77  CA        -9.7160    4.2060  -14.3880 C.3    50  ASN50       0.1785
     78  C        -10.0480    4.8270  -15.7570 C.2    50  ASN50       0.2597
     79  O         -9.5960    4.3230  -16.7930 O.2    50  ASN50      -0.2718
     80  CB        -9.0500    5.2270  -13.4350 C.3    50  ASN50       0.1169
     81  CG        -7.6390    5.6200  -13.8810 C.2    50  ASN50       0.2627
     82  OD1       -7.3590    5.7270  -15.0820 O.2    50  ASN50      -0.2716
     83  ND2       -6.7410    5.8320  -12.9140 N.am   50  ASN50      -0.0877
     84  N        -10.8400    5.8930  -15.7610 N.am   51  ARG51      -0.1966
     85  CA       -11.2460    6.5600  -17.0070 C.3    51  ARG51       0.1729
     86  C        -10.0640    7.1440  -17.7780 C.2    51  ARG51       0.2616
     87  O        -10.0310    7.1030  -19.0230 O.2    51  ARG51      -0.2715
     88  CB       -12.2930    7.6390  -16.7230 C.3    51  ARG51       0.0348
     89  CG       -12.7830    8.4080  -17.9480 C.3    51  ARG51       0.0492
     90  CD       -13.5320    7.5140  -18.9350 C.3    51  ARG51       0.2205
     91  NE       -14.7500    6.9500  -18.3490 N.pl3  51  ARG51      -0.0865
     92  CZ       -15.9240    7.5800  -18.2940 C.cat  51  ARG51       0.5346
     93  NH1      -16.0560    8.8090  -18.7860 N.pl3  51  ARG51       0.1354
     94  NH2      -16.9750    6.9750  -17.7450 N.pl3  51  ARG51       0.1354
     95  N         -9.0920    7.6940  -17.0510 N.am   52  THR52      -0.1951
     96  CA        -7.8820    8.2360  -17.7000 C.3    52  THR52       0.1897
     97  C         -7.2010    7.1410  -18.5290 C.2    52  THR52       0.2313
     98  O         -6.9290    7.3350  -19.7270 O.2    52  THR52      -0.2863
     99  CB        -6.9040    8.8050  -16.6600 C.3    52  THR52       0.1794
    100  OG1       -7.5560    9.8550  -15.9490 O.3    52  THR52      -0.2208
    101  CG2       -5.6150    9.3560  -17.3290 C.3    52  THR52       0.0378
    102  N         -8.0980   19.9910   -7.4010 N.3    73  PHE73      -0.1241
    103  CA        -7.6800   18.6430   -7.0220 C.3    73  PHE73       0.1605
    104  C         -8.7950   17.9000   -6.2870 C.2    73  PHE73       0.2264
    105  O         -9.0770   16.7480   -6.6090 O.2    73  PHE73      -0.2867
    106  CB        -6.4020   18.6720   -6.1780 C.3    73  PHE73       0.0534
    107  CG        -5.1450   18.7210   -6.9940 C.ar   73  PHE73      -0.0203
    108  CD1       -4.5320   17.5330   -7.4170 C.ar   73  PHE73      -0.0042
    109  CD2       -4.5840   19.9400   -7.3490 C.ar   73  PHE73      -0.0042
    110  CE1       -3.3650   17.5640   -8.1870 C.ar   73  PHE73      -0.0003
    111  CE2       -3.4020   19.9770   -8.1280 C.ar   73  PHE73      -0.0003
    112  CZ        -2.8070   18.7850   -8.5360 C.ar   73  PHE73      -0.0000
    113  N        -11.9420   17.1020   -8.7450 N.3    76  SER76      -0.1202
    114  CA       -11.5900   16.1480   -9.8040 C.3    76  SER76       0.2020
    115  C        -11.1930   14.7680   -9.2680 C.2    76  SER76       0.2619
    116  O        -11.2150   13.7840  -10.0090 O.2    76  SER76      -0.2717
    117  CB       -10.5020   16.7080  -10.7240 C.3    76  SER76       0.2103
    118  OG        -9.2500   16.7850  -10.0660 O.3    76  SER76      -0.2182
    119  N        -10.8420   14.6930   -7.9870 N.am   77  SER77      -0.1937
    120  CA       -10.5040   13.4140   -7.3580 C.3    77  SER77       0.2055
    121  C        -11.7080   12.4640   -7.2800 C.2    77  SER77       0.2643
    122  O        -11.5280   11.2370   -7.2610 O.2    77  SER77      -0.2714
    123  CB        -9.9290   13.6480   -5.9530 C.3    77  SER77       0.2130
    124  OG        -8.5690   14.1040   -6.0030 O.3    77  SER77      -0.2179
    125  N        -12.9230   13.0310   -7.2550 N.am   78  PHE78      -0.1973
    126  CA       -14.1470   12.2480   -6.9700 C.3    78  PHE78       0.1639
    127  C        -15.2190   12.3530   -8.0370 C.2    78  PHE78       0.2290
    128  O        -16.2810   11.7270   -7.9230 O.2    78  PHE78      -0.2864
    129  CB       -14.7660   12.6610   -5.6340 C.3    78  PHE78       0.0560
    130  CG       -13.8260   12.5510   -4.4850 C.ar   78  PHE78      -0.0200
    131  CD1      -13.5100   11.3010   -3.9360 C.ar   78  PHE78      -0.0042
    132  CD2      -13.2360   13.6890   -3.9530 C.ar   78  PHE78      -0.0042
    133  CE1      -12.6240   11.2050   -2.8700 C.ar   78  PHE78      -0.0003
    134  CE2      -12.3510   13.5830   -2.8820 C.ar   78  PHE78      -0.0003
    135  CZ       -12.0570   12.3390   -2.3470 C.ar   78  PHE78      -0.0000
    136  N         -3.5450   17.5800   -0.2610 N.3   135  ILE135     -0.1245
    137  CA        -2.9840   16.6310   -1.2090 C.3   135  ILE135      0.1561
    138  C         -2.7710   15.2450   -0.5830 C.2   135  ILE135      0.2260
    139  O         -3.1740   14.2240   -1.1680 O.2   135  ILE135     -0.2867
    140  CB        -1.6920   17.1730   -1.8490 C.3   135  ILE135      0.0252
    141  CG1       -1.9800   18.4880   -2.5960 C.3   135  ILE135      0.0019
    142  CG2       -1.0650   16.1240   -2.7820 C.3   135  ILE135      0.0019
    143  CD1       -2.9700   18.3260   -3.8140 C.3   135  ILE135      0.0001
    144  N         -6.1010   13.5720   -0.0640 N.3   138  LEU138     -0.1231
    145  CA        -6.6770   13.0910   -1.3220 C.3   138  LEU138      0.1693
    146  C         -6.0940   11.7430   -1.7320 C.2   138  LEU138      0.2591
    147  O         -6.8130   10.8720   -2.2530 O.2   138  LEU138     -0.2718
    148  CB        -6.5080   14.1190   -2.4420 C.3   138  LEU138      0.0284
    149  CG        -7.4310   15.3250   -2.3090 C.3   138  LEU138      0.0019
    150  CD1       -6.9960   16.3910   -3.3380 C.3   138  LEU138      0.0001
    151  CD2       -8.9230   14.9290   -2.5120 C.3   138  LEU138      0.0001
    152  N         -4.7940   11.5690   -1.5120 N.am  139  VAL139     -0.1980
    153  CA        -4.1610   10.2630   -1.7630 C.3   139  VAL139      0.1595
    154  C         -4.8910    9.1820   -0.9600 C.2   139  VAL139      0.2287
    155  O         -5.2860    8.1550   -1.5190 O.2   139  VAL139     -0.2864
    156  CB        -2.6520   10.2790   -1.4460 C.3   139  VAL139      0.0276
    157  CG1       -2.0340    8.8580   -1.4610 C.3   139  VAL139      0.0022
    158  CG2       -1.9180   11.2090   -2.4200 C.3   139  VAL139      0.0022
    159  N         -8.9960    8.9750   -1.9700 N.3   142  THR142     -0.1218
    160  CA        -9.2830    8.3050   -3.2500 C.3   142  THR142      0.1862
    161  C         -9.0880    6.8010   -3.1190 C.2   142  THR142      0.2287
    162  O         -9.7680    6.0080   -3.7760 O.2   142  THR142     -0.2866
    163  CB        -8.4450    8.8460   -4.4060 C.3   142  THR142      0.1770
    164  OG1       -7.0490    8.7490   -4.0710 O.3   142  THR142     -0.2211
    165  CG2       -8.8390   10.2990   -4.7160 C.3   142  THR142      0.0375
@<TRIPOS>BOND
     1    98    97    2
     2    10    11    1
     3    87    86    2
     4    90    91    1
     5    90    89    1
     6    93    92    1
     7    97    96    1
     8    14    11    1
     9    14    15    1
    10    91    92    2
    11    11    12    1
    12    92    94    1
    13    13    12    2
    14    89    88    1
    15    86    95   am
    16    86    85    1
    17    96    95    1
    18    96    99    1
    19    12    18   am
    20   101    99    1
    21    62    61    1
    22    15    16    2
    23    15    17   am
    24    85    88    1
    25    85    84    1
    26    79    78    2
    27    99   100    1
    28    18    19    1
    29    61    60    1
    30    61    63    1
    31    84    78   am
    32    78    77    1
    33    19    22    1
    34    19    20    1
    35    60    57    1
    36    82    81    2
    37    76    77    1
    38    77    80    1
    39    20    23   am
    40    20    21    2
    41    67    66    2
    42    59    58    2
    43    56    57    1
    44    56    49   am
    45    23    24    1
    46    57    58    1
    47    47    48    1
    48    81    80    1
    49    81    83   am
    50    41    39    1
    51    40    39    1
    52    40    42    1
    53    48    49    1
    54    48    51    1
    55    58    64   am
    56    66    65    1
    57    49    50    2
    58    39    36    1
    59    26    25    2
    60    27    24    1
    61    24    25    1
    62    52    51    1
    63    52    53    1
    64    46    45    2
    65    64    65    1
    66    25    28   am
    67    65    68    1
    68    45    44    1
    69    54    53    1
    70    54    55    1
    71    36    37    1
    72    36    35    1
    73    38    37    2
    74    37    43   am
    75    35    30   am
    76    43    44    1
    77    28    29    1
    78    28    34    1
    79    30    31    2
    80    30    29    1
    81    68    69    1
    82   117   118    1
    83   117   114    1
    84    29    32    1
    85     3     4    2
    86     3     2    1
    87   116   115    2
    88    34    33    1
    89    69    70   ar
    90    69    71   ar
    91   114   115    1
    92   114   113    1
    93    70    72   ar
    94     1     2    1
    95     2     5    1
    96    71    73   ar
    97   115   119   am
    98    32    33    1
    99   112   110   ar
   100   112   111   ar
   101    72    74   ar
   102    73    74   ar
   103   110   108   ar
   104   111   109   ar
   105   127   128    2
   106   127   126    1
   107   119   120    1
   108    74    75    1
   109     5     6    1
   110     8     7   ar
   111   108   107   ar
   112   102   103    1
   113   120   121    1
   114   120   123    1
   115   109   107   ar
   116   121   122    2
   117   121   125   am
   118   125   126    1
   119     7     6    1
   120     7     9   ar
   121   103   104    1
   122   103   106    1
   123   107   106    1
   124   126   129    1
   125   105   104    2
   126   124   123    1
   127   129   130    1
   128   165   163    1
   129   130   132   ar
   130   130   131   ar
   131   163   164    1
   132   163   160    1
   133   132   134   ar
   134   131   133   ar
   135   143   141    1
   136   162   161    2
   137   150   149    1
   138   160   161    1
   139   160   159    1
   140   134   135   ar
   141   133   135   ar
   142   142   140    1
   143   141   140    1
   144   151   149    1
   145   148   149    1
   146   148   145    1
   147   158   156    1
   148   147   146    2
   149   140   137    1
   150   153   152    1
   151   153   156    1
   152   153   154    1
   153   146   152   am
   154   146   145    1
   155   155   154    2
   156   157   156    1
   157   145   144    1
   158   137   138    1
   159   137   136    1
   160   139   138    2
