@<TRIPOS>MOLECULE
tmp/2impA00.pdb
 214 209 0 0 0
SMALL
GASTEIGER

@<TRIPOS>ATOM
      1  N         35.8980   32.1020   72.0260 N.3   147  ILE147     -0.1231
      2  CA        35.7530   30.9100   71.2150 C.3   147  ILE147      0.1692
      3  C         36.2610   31.2050   69.7890 C.2   147  ILE147      0.2592
      4  O         35.6910   32.0410   69.0840 O.2   147  ILE147     -0.2718
      5  CB        34.2770   30.4730   71.2120 C.3   147  ILE147      0.0266
      6  CG1       33.8170   30.2560   72.6610 C.3   147  ILE147      0.0019
      7  CG2       34.1040   29.2140   70.4020 C.3   147  ILE147      0.0020
      8  CD1       32.3400   29.9570   72.8200 C.3   147  ILE147      0.0001
      9  N         37.3320   30.5290   69.3860 N.am  148  LEU148     -0.1966
     10  CA        37.9510   30.8080   68.0960 C.3   148  LEU148      0.1713
     11  C         37.6840   29.8420   66.9190 C.2   148  LEU148      0.2458
     12  O         37.4470   28.6510   67.1090 O.2   148  LEU148     -0.2730
     13  CB        39.4620   30.9350   68.2920 C.3   148  LEU148      0.0310
     14  CG        39.9020   31.5520   69.6220 C.3   148  LEU148      0.0022
     15  CD1       41.4220   31.5370   69.6830 C.3   148  LEU148      0.0001
     16  CD2       39.3530   32.9740   69.7690 C.3   148  LEU148      0.0001
     17  N         37.7450   30.3750   65.6870 N.am  149  PRO149     -0.2716
     18  CA        37.5320   29.6510   64.4340 C.3   149  PRO149      0.1536
     19  C         38.8850   29.1210   63.8980 C.2   149  PRO149      0.2599
     20  O         39.9330   29.3800   64.4960 O.2   149  PRO149     -0.2715
     21  CB        36.9470   30.7250   63.5320 C.3   149  PRO149      0.0310
     22  CG        37.7970   31.9020   63.8920 C.3   149  PRO149      0.0237
     23  CD        37.8540   31.8230   65.4270 C.3   149  PRO149      0.0939
     24  N         38.8500   28.3970   62.7800 N.am  150  TRP150     -0.1960
     25  CA        40.0810   27.8600   62.1920 C.3   150  TRP150      0.1771
     26  C         40.8750   28.8620   61.3300 C.2   150  TRP150      0.2619
     27  O         42.0710   28.6780   61.1110 O.2   150  TRP150     -0.2715
     28  CB        39.7950   26.6320   61.3320 C.3   150  TRP150      0.0590
     29  CG        38.8690   26.9180   60.2310 C.ar  150  TRP150      0.0006
     30  CD1       37.5960   26.7730   60.2830 C.ar  150  TRP150      0.0946
     31  CD2       39.1720   27.4630   58.9350 C.ar  150  TRP150      0.0152
     32  NE1       36.9880   27.1730   59.1060 N.ar  150  TRP150     -0.2442
     33  CE2       37.9420   27.5960   58.2510 C.ar  150  TRP150      0.0810
     34  CE3       40.3370   27.8290   58.2940 C.ar  150  TRP150      0.0012
     35  CZ2       37.8510   28.1070   56.9600 C.ar  150  TRP150      0.0191
     36  CZ3       40.2520   28.3370   57.0140 C.ar  150  TRP150      0.0001
     37  CH2       39.0110   28.4640   56.3530 C.ar  150  TRP150      0.0015
     38  N         40.1950   29.8940   60.8320 N.am  151  ASN151     -0.1972
     39  CA        40.8420   30.9190   60.0150 C.3   151  ASN151      0.1688
     40  C         41.4870   32.0200   60.8910 C.2   151  ASN151      0.2292
     41  O         40.8420   32.5520   61.7950 O.2   151  ASN151     -0.2864
     42  CB        39.8240   31.5370   59.0500 C.3   151  ASN151      0.1181
     43  CG        40.4870   32.2600   57.8910 C.2   151  ASN151      0.2629
     44  OD1       41.3280   31.6920   57.1920 O.2   151  ASN151     -0.2716
     45  ND2       40.1080   33.5180   57.6760 N.am  151  ASN151     -0.0877
     46  N         39.0170   28.9980   74.0860 N.3   174  LYS174     -0.1231
     47  CA        38.9060   27.6920   73.4530 C.3   174  LYS174      0.1678
     48  C         39.1640   27.8240   71.9560 C.2   174  LYS174      0.2434
     49  O         38.3790   28.4370   71.2360 O.2   174  LYS174     -0.2733
     50  CB        37.5300   27.0510   73.6330 C.3   174  LYS174      0.0284
     51  CG        37.5160   25.6050   73.0960 C.3   174  LYS174      0.0035
     52  CD        36.1190   25.0340   72.9140 C.3   174  LYS174      0.0206
     53  CE        35.5190   25.4190   71.5750 C.3   174  LYS174      0.1093
     54  NZ        36.2710   24.8140   70.4260 N.3   174  LYS174     -0.1314
     55  N         40.2860   27.2790   71.4770 N.am  175  PRO175     -0.2718
     56  CA        40.5570   27.3910   70.0460 C.3   175  PRO175      0.1535
     57  C         39.6640   26.3920   69.2880 C.2   175  PRO175      0.2599
     58  O         39.0080   25.5530   69.9040 O.2   175  PRO175     -0.2715
     59  CB        42.0260   27.0130   69.9570 C.3   175  PRO175      0.0310
     60  CG        42.1260   25.9060   70.9930 C.3   175  PRO175      0.0237
     61  CD        41.3110   26.4650   72.1610 C.3   175  PRO175      0.0939
     62  N         39.6170   26.5110   67.9680 N.am  176  SER176     -0.1936
     63  CA        38.8580   25.5520   67.1790 C.3   176  SER176      0.2055
     64  C         39.5010   24.1600   67.3110 C.2   176  SER176      0.2643
     65  O         40.7250   24.0690   67.4430 O.2   176  SER176     -0.2714
     66  CB        38.8630   25.9600   65.7020 C.3   176  SER176      0.2130
     67  OG        38.5560   24.8570   64.8580 O.3   176  SER176     -0.2179
     68  N         38.6990   23.1010   67.3000 N.am  177  GLU177     -0.1963
     69  CA        39.2610   21.7600   67.4010 C.3   177  GLU177      0.1733
     70  C         40.1640   21.3860   66.2020 C.2   177  GLU177      0.2616
     71  O         40.9530   20.4470   66.2780 O.2   177  GLU177     -0.2715
     72  CB        38.1530   20.7080   67.5480 C.3   177  GLU177      0.0429
     73  CG        37.0770   20.7500   66.4740 C.3   177  GLU177      0.1163
     74  CD        35.8720   21.5780   66.8900 C.2   177  GLU177      0.3649
     75  OE1       34.7610   21.0080   66.9480 O.co2 177  GLU177     -0.2457
     76  OE2       36.0350   22.7930   67.1670 O.co2 177  GLU177     -0.2457
     77  N         40.0290   22.1420   65.1140 N.am  178  PHE178     -0.1974
     78  CA        40.8130   21.9200   63.9060 C.3   178  PHE178      0.1639
     79  C         42.1790   22.6250   63.9130 C.2   178  PHE178      0.2290
     80  O         43.1050   22.2060   63.2180 O.2   178  PHE178     -0.2864
     81  CB        40.0400   22.3950   62.6750 C.3   178  PHE178      0.0560
     82  CG        38.7290   21.7120   62.4890 C.ar  178  PHE178     -0.0200
     83  CD1       38.6740   20.3420   62.2540 C.ar  178  PHE178     -0.0042
     84  CD2       37.5410   22.4280   62.5700 C.ar  178  PHE178     -0.0042
     85  CE1       37.4550   19.6920   62.1090 C.ar  178  PHE178     -0.0003
     86  CE2       36.3190   21.7870   62.4280 C.ar  178  PHE178     -0.0003
     87  CZ        36.2770   20.4170   62.1960 C.ar  178  PHE178     -0.0000
     88  N         35.2970   20.4000   71.7240 N.3   206  ARG206     -0.1231
     89  CA        34.3140   20.7440   70.7110 C.3   206  ARG206      0.1694
     90  C         33.4190   21.9270   71.0960 C.2   206  ARG206      0.2593
     91  O         33.3800   22.3450   72.2550 O.2   206  ARG206     -0.2718
     92  CB        33.4210   19.5390   70.4080 C.3   206  ARG206      0.0321
     93  CG        34.1460   18.3540   69.7760 C.3   206  ARG206      0.0489
     94  CD        33.2220   17.1450   69.7210 C.3   206  ARG206      0.2205
     95  NE        32.7680   16.7810   71.0610 N.pl3 206  ARG206     -0.0865
     96  CZ        31.7330   15.9860   71.3160 C.cat 206  ARG206      0.5346
     97  NH1       31.0320   15.4640   70.3180 N.pl3 206  ARG206      0.1354
     98  NH2       31.3990   15.7130   72.5700 N.pl3 206  ARG206      0.1354
     99  N         32.6980   22.4450   70.1100 N.am  207  GLY207     -0.1942
    100  CA        31.8150   23.5610   70.3660 C.3   207  GLY207      0.2014
    101  C         30.6220   23.1960   71.2230 C.2   207  GLY207      0.2638
    102  O         30.3260   23.8760   72.2070 O.2   207  GLY207     -0.2714
    103  N         29.9420   22.1150   70.8500 N.am  208  GLU208     -0.1977
    104  CA        28.7630   21.6400   71.5730 C.3   208  GLU208      0.1602
    105  C         28.9870   21.3920   73.0830 C.2   208  GLU208      0.2287
    106  O         28.0690   21.5290   73.8910 O.2   208  GLU208     -0.2864
    107  CB        28.2440   20.3440   70.9360 C.3   208  GLU208      0.0415
    108  CG        27.8160   20.4580   69.4730 C.3   208  GLU208      0.1163
    109  CD        28.9580   20.8310   68.5240 C.2   208  GLU208      0.3649
    110  OE1       30.1270   20.4800   68.8060 O.co2 208  GLU208     -0.2457
    111  OE2       28.6770   21.4640   67.4790 O.co2 208  GLU208     -0.2457
    112  N         32.6100   24.7250   74.2730 N.3   211  GLY211     -0.1210
    113  CA        32.1510   26.0170   73.7900 C.3   211  GLY211      0.1956
    114  C         30.8710   26.4630   74.4700 C.2   211  GLY211      0.2611
    115  O         30.7470   27.6150   74.8940 O.2   211  GLY211     -0.2717
    116  N         29.9070   25.5530   74.5690 N.am  212  GLN212     -0.1979
    117  CA        28.6420   25.8730   75.2130 C.3   212  GLN212      0.1601
    118  C         28.7920   26.2600   76.6940 C.2   212  GLN212      0.2287
    119  O         28.0800   27.1400   77.1840 O.2   212  GLN212     -0.2864
    120  CB        27.6650   24.7080   75.0650 C.3   212  GLN212      0.0394
    121  CG        26.9430   24.6990   73.7240 C.3   212  GLN212      0.0908
    122  CD        25.9510   25.8470   73.5870 C.2   212  GLN212      0.2608
    123  OE1       24.9730   25.9200   74.3260 O.2   212  GLN212     -0.2717
    124  NE2       26.2040   26.7510   72.6410 N.am  212  GLN212     -0.0878
    125  N         33.0750   35.4160   70.3680 N.3   225  MET225     -0.1230
    126  CA        33.2870   34.3700   69.3910 C.3   225  MET225      0.1702
    127  C         33.3260   34.8220   67.9280 C.2   225  MET225      0.2593
    128  O         32.6170   35.7420   67.5170 O.2   225  MET225     -0.2718
    129  CB        32.2120   33.2840   69.5640 C.3   225  MET225      0.0401
    130  CG        32.1800   32.2220   68.4660 C.3   225  MET225      0.0596
    131  SD        31.0750   32.6240   67.0860 S.3   225  MET225     -0.1393
    132  CE        31.2680   31.1680   66.0550 C.3   225  MET225      0.0692
    133  N         34.1870   34.1650   67.1660 N.am  226  THR226     -0.1939
    134  CA        34.3130   34.4180   65.7480 C.3   226  THR226      0.2028
    135  C         34.1460   33.1020   64.9650 C.2   226  THR226      0.2643
    136  O         34.6900   32.0730   65.3800 O.2   226  THR226     -0.2714
    137  CB        35.6740   35.0470   65.4180 C.3   226  THR226      0.1808
    138  OG1       35.7960   36.2990   66.1070 O.3   226  THR226     -0.2208
    139  CG2       35.8020   35.2850   63.9170 C.3   226  THR226      0.0379
    140  N         33.3750   33.1350   63.8800 N.am  227  GLY227     -0.1939
    141  CA        33.1550   31.9310   63.0930 C.3   227  GLY227      0.2014
    142  C         31.8440   31.9010   62.3200 C.2   227  GLY227      0.2639
    143  O         31.4120   32.9220   61.7880 O.2   227  GLY227     -0.2714
    144  N         31.2020   30.7340   62.2640 N.am  228  SER228     -0.1949
    145  CA        29.9450   30.5750   61.5250 C.3   228  SER228      0.1924
    146  C         28.7080   31.1730   62.2050 C.2   228  SER228      0.2314
    147  O         28.6110   31.1900   63.4330 O.2   228  SER228     -0.2863
    148  CB        29.6630   29.0930   61.2490 C.3   228  SER228      0.2116
    149  OG        29.2030   28.4330   62.4190 O.3   228  SER228     -0.2180
    150  N         26.8750   28.6910   64.6290 N.3   231  ALA231     -0.1245
    151  CA        27.4450   28.5740   65.9610 C.3   231  ALA231      0.1562
    152  C         27.1710   29.8350   66.8070 C.2   231  ALA231      0.2260
    153  O         26.9030   29.7450   68.0060 O.2   231  ALA231     -0.2867
    154  CB        28.9380   28.3350   65.8660 C.3   231  ALA231      0.0290
    155  N         23.7340   29.6500   68.3440 N.3   234  LYS234     -0.1231
    156  CA        23.6770   28.7540   69.4810 C.3   234  LYS234      0.1693
    157  C         24.3510   29.3620   70.7130 C.2   234  LYS234      0.2591
    158  O         23.9060   29.1670   71.8410 O.2   234  LYS234     -0.2718
    159  CB        24.3330   27.4190   69.1250 C.3   234  LYS234      0.0285
    160  CG        23.6280   26.6780   67.9830 C.3   234  LYS234      0.0035
    161  CD        24.3060   25.3530   67.6730 C.3   234  LYS234      0.0206
    162  CE        23.6170   24.6300   66.5290 C.3   234  LYS234      0.1093
    163  NZ        23.7340   25.3980   65.2580 N.3   234  LYS234     -0.1314
    164  N         25.4290   30.0990   70.4680 N.am  235  ILE235     -0.1980
    165  CA        26.1560   30.7700   71.5340 C.3   235  ILE235      0.1595
    166  C         25.3090   31.8670   72.1950 C.2   235  ILE235      0.2287
    167  O         25.2130   31.9430   73.4190 O.2   235  ILE235     -0.2864
    168  CB        27.4640   31.3980   71.0000 C.3   235  ILE235      0.0276
    169  CG1       28.4870   30.2910   70.7430 C.3   235  ILE235      0.0022
    170  CG2       28.0200   32.4100   72.0010 C.3   235  ILE235      0.0022
    171  CD1       29.7080   30.7320   69.9890 C.3   235  ILE235      0.0001
    172  N         40.2000   23.7650   54.8980 N.3   326  ILE326     -0.1231
    173  CA        40.3500   23.2600   56.2620 C.3   326  ILE326      0.1692
    174  C         40.0220   21.7630   56.4870 C.2   326  ILE326      0.2592
    175  O         40.8080   21.0410   57.0990 O.2   326  ILE326     -0.2718
    176  CB        39.5340   24.1220   57.2720 C.3   326  ILE326      0.0266
    177  CG1       39.9610   23.7930   58.7040 C.3   326  ILE326      0.0019
    178  CG2       38.0480   23.8770   57.0960 C.3   326  ILE326      0.0020
    179  CD1       41.4370   24.0400   58.9790 C.3   326  ILE326      0.0001
    180  N         38.8750   21.3080   55.9950 N.am  327  ASN327     -0.1974
    181  CA        38.4940   19.9100   56.1690 C.3   327  ASN327      0.1688
    182  C         37.5670   19.3380   55.0690 C.2   327  ASN327      0.2292
    183  O         37.1530   20.0480   54.1540 O.2   327  ASN327     -0.2864
    184  CB        37.8280   19.7110   57.5350 C.3   327  ASN327      0.1181
    185  CG        36.6490   20.6440   57.7520 C.2   327  ASN327      0.2629
    186  OD1       35.8260   20.8450   56.8580 O.2   327  ASN327     -0.2716
    187  ND2       36.5570   21.2130   58.9530 N.am  327  ASN327     -0.0877
    188  N         34.3150   18.3140   55.0790 N.3   329  ALA329     -0.1245
    189  CA        33.0120   18.9470   54.9430 C.3   329  ALA329      0.1562
    190  C         33.0780   20.2640   54.1730 C.2   329  ALA329      0.2260
    191  O         32.1900   20.5780   53.3830 O.2   329  ALA329     -0.2867
    192  CB        32.4110   19.1830   56.2990 C.3   329  ALA329      0.0290
    193  N         30.9920   20.9660   50.7200 N.3   333  ARG333     -0.1245
    194  CA        30.0620   22.0730   50.5760 C.3   333  ARG333      0.1563
    195  C         30.3900   22.9830   49.3760 C.2   333  ARG333      0.2260
    196  O         29.4900   23.5130   48.7240 O.2   333  ARG333     -0.2867
    197  CB        30.0000   22.8970   51.8670 C.3   333  ARG333      0.0307
    198  CG        29.2850   22.1790   53.0090 C.3   333  ARG333      0.0489
    199  CD        28.8730   23.1390   54.1190 C.3   333  ARG333      0.2205
    200  NE        30.0220   23.7250   54.8020 N.pl3 333  ARG333     -0.0865
    201  CZ        30.8190   23.0670   55.6390 C.cat 333  ARG333      0.5346
    202  NH1       30.5950   21.7880   55.9130 N.pl3 333  ARG333      0.1354
    203  NH2       31.8550   23.6850   56.1890 N.pl3 333  ARG333      0.1354
    204  N         33.2240   29.2230   51.3990 N.3   382  PHE382     -0.1241
    205  CA        34.5480   28.7980   51.8700 C.3   382  PHE382      0.1605
    206  C         35.6730   28.8510   50.8030 C.2   382  PHE382      0.2264
    207  O         36.4910   29.7670   50.7930 O.2   382  PHE382     -0.2867
    208  CB        34.4960   27.3690   52.4310 C.3   382  PHE382      0.0534
    209  CG        33.1210   26.9100   52.8190 C.ar  382  PHE382     -0.0203
    210  CD1       32.2170   26.4880   51.8490 C.ar  382  PHE382     -0.0042
    211  CD2       32.7150   26.9350   54.1490 C.ar  382  PHE382     -0.0042
    212  CE1       30.9320   26.0840   52.1950 C.ar  382  PHE382     -0.0003
    213  CE2       31.4300   26.5320   54.5080 C.ar  382  PHE382     -0.0003
    214  CZ        30.5340   26.1150   53.5250 C.ar  382  PHE382     -0.0000
@<TRIPOS>BOND
     1   196   195    2
     2   195   194    1
     3   194   193    1
     4   194   197    1
     5   207   206    2
     6   206   205    1
     7   204   205    1
     8   210   212   ar
     9   210   209   ar
    10   197   198    1
    11   205   208    1
    12   212   214   ar
    13   208   209    1
    14   209   211   ar
    15   198   199    1
    16   191   190    2
    17   214   213   ar
    18   199   200    1
    19   211   213   ar
    20   183   182    2
    21   190   189    1
    22   200   201    2
    23   172   173    1
    24   189   188    1
    25   189   192    1
    26   182   181    1
    27   201   202    1
    28   201   203    1
    29   180   181    1
    30   180   174   am
    31   181   184    1
    32   173   174    1
    33   173   176    1
    34    37    35   ar
    35    37    36   ar
    36   174   175    2
    37   186   185    2
    38    35    33   ar
    39    36    34   ar
    40   178   176    1
    41    44    43    2
    42   176   177    1
    43   184   185    1
    44    45    43   am
    45   185   187   am
    46    43    42    1
    47    33    31   ar
    48    33    32   ar
    49    34    31   ar
    50   177   179    1
    51    31    29   ar
    52    42    39    1
    53    32    30   ar
    54    39    38    1
    55    39    40    1
    56    29    30   ar
    57    29    28    1
    58    38    26   am
    59    40    41    2
    60    27    26    2
    61   148   145    1
    62   148   149    1
    63    26    25    1
    64    28    25    1
    65   145   146    1
    66   145   144    1
    67   143   142    2
    68    85    87   ar
    69    85    83   ar
    70    25    24    1
    71    87    86   ar
    72   146   147    2
    73    83    82   ar
    74   144   142   am
    75   142   141    1
    76    86    84   ar
    77    82    84   ar
    78    82    81    1
    79    81    78    1
    80    24    19   am
    81   141   140    1
    82    80    79    2
    83    21    22    1
    84    21    18    1
    85   140   135   am
    86    22    23    1
    87    19    18    1
    88    19    20    2
    89    78    79    1
    90    78    77    1
    91   139   137    1
    92    18    17    1
    93   150   151    1
    94    67    66    1
    95   135   136    2
    96   135   134    1
    97    77    70   am
    98   163   162    1
    99   137   134    1
   100   137   138    1
   101    23    17    1
   102    17    11   am
   103    66    63    1
   104   134   133    1
   105   154   151    1
   106   151   152    1
   107   132   131    1
   108    70    71    2
   109    70    69    1
   110    73    74    1
   111    73    72    1
   112   162   161    1
   113   152   153    2
   114    74    75   ar
   115    74    76   ar
   116    11    12    2
   117    11    10    1
   118   131   130    1
   119   133   127   am
   120    63    64    1
   121    63    62    1
   122    68    64   am
   123    68    69    1
   124    64    65    2
   125    69    72    1
   126   111   109   ar
   127   128   127    2
   128   161   160    1
   129   127   126    1
   130    62    57   am
   131   160   159    1
   132    10    13    1
   133    10     9    1
   134    13    14    1
   135   155   156    1
   136   130   129    1
   137   109   110   ar
   138   109   108    1
   139     4     3    2
   140   159   156    1
   141    57    58    2
   142    57    56    1
   143     9     3   am
   144   126   129    1
   145   126   125    1
   146   108   107    1
   147   156   157    1
   148    14    15    1
   149    14    16    1
   150    94    93    1
   151    94    95    1
   152    93    92    1
   153     3     2    1
   154    59    56    1
   155    59    60    1
   156   171   169    1
   157    56    55    1
   158    99   100    1
   159    99    90   am
   160    97    96    1
   161   100   101    1
   162     7     5    1
   163    92    89    1
   164    54    53    1
   165   164   157   am
   166   164   165    1
   167    89    90    1
   168    89    88    1
   169   157   158    2
   170   169   168    1
   171   103   101   am
   172   103   104    1
   173   107   104    1
   174    60    61    1
   175   168   165    1
   176   168   170    1
   177    95    96    2
   178    90    91    2
   179     5     2    1
   180     5     6    1
   181     2     1    1
   182   101   102    2
   183    49    48    2
   184    96    98    1
   185    55    48   am
   186    55    61    1
   187   165   166    1
   188   104   105    1
   189    53    52    1
   190    48    47    1
   191   166   167    2
   192   124   122   am
   193     6     8    1
   194    52    51    1
   195   105   106    2
   196    51    50    1
   197    47    50    1
   198    47    46    1
   199   122   121    1
   200   122   123    2
   201   121   120    1
   202   113   112    1
   203   113   114    1
   204   114   116   am
   205   114   115    2
   206   116   117    1
   207   120   117    1
   208   117   118    1
   209   118   119    2
