@<TRIPOS>MOLECULE
tmp/2in4A00.pdb
 204 197 0 0 0
SMALL
GASTEIGER

@<TRIPOS>ATOM
      1  N          4.2370    4.9510   14.2670 N.3    29  LEU29      -0.1245
      2  CA         3.6480    4.4120   13.0480 C.3    29  LEU29       0.1561
      3  C          2.4300    5.2190   12.6540 C.2    29  LEU29       0.2260
      4  O          2.2540    5.5410   11.4860 O.2    29  LEU29      -0.2867
      5  CB         3.2990    2.9290   13.2140 C.3    29  LEU29       0.0270
      6  CG         4.2000    1.8850   12.5300 C.3    29  LEU29       0.0019
      7  CD1        5.6260    2.3380   12.2150 C.3    29  LEU29       0.0001
      8  CD2        4.1860    0.5530   13.2670 C.3    29  LEU29       0.0001
      9  N          3.5720    8.4390   11.1140 N.3    32  LEU32      -0.1245
     10  CA         4.0170    8.1140    9.7580 C.3    32  LEU32       0.1561
     11  C          2.8480    7.9090    8.7870 C.2    32  LEU32       0.2260
     12  O          2.8040    8.5260    7.7240 O.2    32  LEU32      -0.2867
     13  CB         4.8790    6.8540    9.7910 C.3    32  LEU32       0.0270
     14  CG         5.4540    6.3390    8.4820 C.3    32  LEU32       0.0019
     15  CD1        6.3730    7.3900    7.7760 C.3    32  LEU32       0.0001
     16  CD2        6.2090    5.0470    8.7780 C.3    32  LEU32       0.0001
     17  N          3.0480    5.5270    2.5580 N.3    39  THR39      -0.1218
     18  CA         3.8740    4.5510    3.2790 C.3    39  THR39       0.1862
     19  C          3.0840    3.3280    3.7370 C.2    39  THR39       0.2287
     20  O          3.6470    2.2410    3.9080 O.2    39  THR39      -0.2866
     21  CB         4.6120    5.1820    4.4960 C.3    39  THR39       0.1770
     22  OG1        3.6660    5.6110    5.4930 O.3    39  THR39      -0.2211
     23  CG2        5.4720    6.3440    4.0450 C.3    39  THR39       0.0375
     24  N          2.8320   -0.0220    1.6930 N.3    42  LYS42      -0.1231
     25  CA         3.8890   -1.0220    1.8620 C.3    42  LYS42       0.1693
     26  C          3.5310   -2.1440    2.8530 C.2    42  LYS42       0.2592
     27  O          4.2500   -3.1450    2.9640 O.2    42  LYS42      -0.2718
     28  CB         5.2030   -0.3480    2.2700 C.3    42  LYS42       0.0285
     29  CG         5.7760    0.6060    1.2250 C.3    42  LYS42       0.0035
     30  CD         6.4610   -0.1510    0.1110 C.3    42  LYS42       0.0206
     31  CE         6.9680    0.7930   -0.9630 C.3    42  LYS42       0.1093
     32  NZ         7.7460    0.0420   -2.0050 N.3    42  LYS42      -0.1314
     33  N          2.4120   -1.9930    3.5520 N.am   43  PHE43      -0.1962
     34  CA         2.0350   -2.9390    4.5990 C.3    43  PHE43       0.1771
     35  C          0.7520   -3.6880    4.2370 C.2    43  PHE43       0.2620
     36  O         -0.3630   -3.2180    4.5120 O.2    43  PHE43      -0.2715
     37  CB         1.8510   -2.2330    5.9520 C.3    43  PHE43       0.0574
     38  CG         3.0910   -1.5470    6.4780 C.ar   43  PHE43      -0.0200
     39  CD1        3.4460   -0.2740    6.0270 C.ar   43  PHE43      -0.0042
     40  CD2        3.8730   -2.1550    7.4650 C.ar   43  PHE43      -0.0042
     41  CE1        4.5760    0.3700    6.5310 C.ar   43  PHE43      -0.0003
     42  CE2        5.0120   -1.5170    7.9750 C.ar   43  PHE43      -0.0003
     43  CZ         5.3580   -0.2560    7.5200 C.ar   43  PHE43      -0.0000
     44  N          0.9230   -4.8550    3.6300 N.am   44  ASP44      -0.1957
     45  CA        -0.1970   -5.7310    3.2720 C.3    44  ASP44       0.1840
     46  C         -1.2250   -5.8620    4.3830 C.2    44  ASP44       0.2622
     47  O         -2.4200   -5.7720    4.1310 O.2    44  ASP44      -0.2715
     48  CB         0.3070   -7.1400    2.9320 C.3    44  ASP44       0.1450
     49  CG         1.0570   -7.2120    1.6210 C.2    44  ASP44       0.3671
     50  OD1        1.3780   -6.1660    0.9950 O.co2  44  ASP44      -0.2456
     51  OD2        1.3310   -8.3640    1.2210 O.co2  44  ASP44      -0.2456
     52  N         -0.7700   -6.0750    5.6160 N.am   45  LYS45      -0.1963
     53  CA        -1.7170   -6.3070    6.7030 C.3    45  LYS45       0.1728
     54  C         -2.2900   -5.0740    7.4010 C.2    45  LYS45       0.2616
     55  O         -3.1750   -5.2190    8.2370 O.2    45  LYS45      -0.2715
     56  CB        -1.1820   -7.3440    7.7080 C.3    45  LYS45       0.0311
     57  CG         0.0370   -6.9480    8.5200 C.3    45  LYS45       0.0038
     58  CD         0.6910   -8.2010    9.0760 C.3    45  LYS45       0.0206
     59  CE         0.9930   -8.0600   10.5610 C.3    45  LYS45       0.1093
     60  NZ         0.9080   -9.3690   11.2740 N.3    45  LYS45      -0.1314
     61  N         -1.8210   -3.8710    7.0420 N.am   46  PHE46      -0.1974
     62  CA        -2.2860   -2.6190    7.6890 C.3    46  PHE46       0.1639
     63  C         -3.0400   -1.6720    6.7720 C.2    46  PHE46       0.2290
     64  O         -3.7570   -0.7880    7.2520 O.2    46  PHE46      -0.2864
     65  CB        -1.1160   -1.7970    8.2820 C.3    46  PHE46       0.0560
     66  CG        -0.2930   -2.5270    9.2920 C.ar   46  PHE46      -0.0200
     67  CD1       -0.8310   -3.5540   10.0490 C.ar   46  PHE46      -0.0042
     68  CD2        1.0240   -2.1710    9.5010 C.ar   46  PHE46      -0.0042
     69  CE1       -0.0580   -4.2200   10.9760 C.ar   46  PHE46      -0.0003
     70  CE2        1.7930   -2.8360   10.4290 C.ar   46  PHE46      -0.0003
     71  CZ         1.2560   -3.8540   11.1630 C.ar   46  PHE46      -0.0000
     72  N          4.0140   -4.3960   15.3590 N.3    64  HIS64      -0.1241
     73  CA         5.0490   -3.9720   14.4130 C.3    64  HIS64       0.1621
     74  C          5.8170   -2.7340   14.8850 C.2    64  HIS64       0.2264
     75  O          7.0320   -2.6500   14.6970 O.2    64  HIS64      -0.2867
     76  CB         4.5270   -3.7540   12.9880 C.3    64  HIS64       0.0745
     77  CG         5.6310   -3.5810   11.9950 C.ar   64  HIS64       0.0817
     78  ND1        6.5640   -4.5670   11.7520 N.ar   64  HIS64      -0.2268
     79  CD2        5.9980   -2.5210   11.2340 C.ar   64  HIS64       0.1154
     80  CE1        7.4420   -4.1340   10.8660 C.ar   64  HIS64       0.1986
     81  NE2        7.1170   -2.8960   10.5320 N.ar   64  HIS64      -0.2212
     82  N          8.4520   -3.9220   17.0790 N.3    67  VAL67      -0.1231
     83  CA         9.4790   -4.5290   16.2190 C.3    67  VAL67       0.1692
     84  C         10.4410   -3.4630   15.6570 C.2    67  VAL67       0.2591
     85  O         11.6640   -3.6360   15.7130 O.2    67  VAL67      -0.2718
     86  CB         8.8240   -5.3780   15.0870 C.3    67  VAL67       0.0266
     87  CG1        9.8110   -5.7490   14.0070 C.3    67  VAL67       0.0020
     88  CG2        8.2190   -6.6560   15.6820 C.3    67  VAL67       0.0020
     89  N          9.8730   -2.3700   15.1340 N.am   68  VAL68      -0.1980
     90  CA        10.6290   -1.3130   14.4700 C.3    68  VAL68       0.1595
     91  C         11.5030   -0.5970   15.4920 C.2    68  VAL68       0.2287
     92  O         12.6970   -0.4390   15.2950 O.2    68  VAL68      -0.2864
     93  CB         9.6880   -0.2870   13.7840 C.3    68  VAL68       0.0276
     94  CG1       10.4630    0.9410   13.2820 C.3    68  VAL68       0.0022
     95  CG2        8.9610   -0.9240   12.6410 C.3    68  VAL68       0.0022
     96  N         14.4180   -2.7730   16.9130 N.3    71  ALA71      -0.1231
     97  CA        15.5660   -2.8340   16.0080 C.3    71  ALA71       0.1694
     98  C         16.3360   -1.5010   15.9910 C.2    71  ALA71       0.2591
     99  O         17.5730   -1.5050   16.0740 O.2    71  ALA71      -0.2718
    100  CB        15.1540   -3.2490   14.6120 C.3    71  ALA71       0.0304
    101  N         15.6100   -0.3800   15.9380 N.am   72  LEU72      -0.1980
    102  CA        16.2590    0.9310   15.9180 C.3    72  LEU72       0.1596
    103  C         17.0670    1.2080   17.1860 C.2    72  LEU72       0.2287
    104  O         18.1810    1.7100   17.1070 O.2    72  LEU72      -0.2864
    105  CB        15.2360    2.0650   15.6860 C.3    72  LEU72       0.0297
    106  CG        15.8350    3.4650   15.5130 C.3    72  LEU72       0.0022
    107  CD1       16.8740    3.4710   14.3890 C.3    72  LEU72       0.0001
    108  CD2       14.7460    4.5000   15.2400 C.3    72  LEU72       0.0001
    109  N         21.1660   -6.9880    8.5790 N.3    88  PRO88      -0.2102
    110  CA        19.8850   -7.6670    8.2530 C.3    88  PRO88       0.1504
    111  C         18.6860   -6.7710    7.9660 C.2    88  PRO88       0.2575
    112  O         17.7720   -7.1790    7.2520 O.2    88  PRO88      -0.2718
    113  CB        19.5950   -8.5280    9.4880 C.3    88  PRO88       0.0282
    114  CG        20.4750   -8.0100   10.5500 C.3    88  PRO88       0.0208
    115  CD        21.6460   -7.3380    9.9280 C.3    88  PRO88       0.0893
    116  N         18.6770   -5.5780    8.5380 N.am   89  LEU89      -0.1980
    117  CA        17.6450   -4.6060    8.2430 C.3    89  LEU89       0.1596
    118  C         17.8020   -4.0660    6.8070 C.2    89  LEU89       0.2287
    119  O         16.8450   -4.0620    6.0340 O.2    89  LEU89      -0.2864
    120  CB        17.6970   -3.4710    9.2780 C.3    89  LEU89       0.0297
    121  CG        16.4770   -2.5470    9.4740 C.3    89  LEU89       0.0022
    122  CD1       16.6270   -1.8220   10.8090 C.3    89  LEU89       0.0001
    123  CD2       16.3510   -1.5380    8.3510 C.3    89  LEU89       0.0001
    124  N         16.6460   -6.9010    4.3470 N.3    92  SER92      -0.1202
    125  CA        15.2020   -7.1100    4.1520 C.3    92  SER92       0.2020
    126  C         14.5030   -5.9340    3.4940 C.2    92  SER92       0.2618
    127  O         13.5570   -6.1310    2.7370 O.2    92  SER92      -0.2717
    128  CB        14.5020   -7.4340    5.4660 C.3    92  SER92       0.2103
    129  OG        14.6380   -6.3470    6.3660 O.3    92  SER92      -0.2182
    130  N         14.9580   -4.7180    3.7920 N.am   93  HIS93      -0.1975
    131  CA        14.3130   -3.5110    3.2730 C.3    93  HIS93       0.1656
    132  C         14.7090   -3.2300    1.8370 C.2    93  HIS93       0.2291
    133  O         14.0350   -2.4660    1.1520 O.2    93  HIS93      -0.2864
    134  CB        14.5770   -2.3100    4.1940 C.3    93  HIS93       0.0771
    135  CG        13.7910   -2.3590    5.4770 C.ar   93  HIS93       0.0820
    136  ND1       13.9720   -3.3490    6.4220 N.ar   93  HIS93      -0.2267
    137  CD2       12.8070   -1.5620    5.9520 C.ar   93  HIS93       0.1154
    138  CE1       13.1480   -3.1410    7.4340 C.ar   93  HIS93       0.1986
    139  NE2       12.4200   -2.0720    7.1690 N.ar   93  HIS93      -0.2212
    140  N         10.9850   -5.8610    1.1880 N.3    97  HIS97      -0.1241
    141  CA         9.9830   -4.7810    1.3360 C.3    97  HIS97       0.1621
    142  C         10.1550   -3.5730    0.4050 C.2    97  HIS97       0.2264
    143  O          9.1770   -2.8460    0.1390 O.2    97  HIS97      -0.2867
    144  CB         9.9360   -4.2780    2.7880 C.3    97  HIS97       0.0745
    145  CG        10.1250   -5.3590    3.8020 C.ar   97  HIS97       0.0817
    146  ND1        9.2650   -6.4290    3.9160 N.ar   97  HIS97      -0.2268
    147  CD2       11.0800   -5.5400    4.7430 C.ar   97  HIS97       0.1154
    148  CE1        9.6950   -7.2310    4.8740 C.ar   97  HIS97       0.1986
    149  NE2       10.7830   -6.7040    5.4040 N.ar   97  HIS97      -0.2212
    150  N         11.9860   -0.4950    0.8190 N.3    99  ILE99      -0.1245
    151  CA        11.6440    0.7630    1.4870 C.3    99  ILE99       0.1561
    152  C         12.5580    1.9000    1.0150 C.2    99  ILE99       0.2260
    153  O         13.7500    1.9080    1.3230 O.2    99  ILE99      -0.2867
    154  CB        11.6600    0.6040    3.0310 C.3    99  ILE99       0.0252
    155  CG1       10.6930   -0.5140    3.4760 C.3    99  ILE99       0.0019
    156  CG2       11.4040    1.9610    3.7520 C.3    99  ILE99       0.0019
    157  CD1        9.2830   -0.3750    2.9480 C.3    99  ILE99       0.0001
    158  N         11.2240    7.2070    2.6310 N.3   103  TYR103     -0.1227
    159  CA        10.3440    6.7030    3.6680 C.3   103  TYR103      0.1736
    160  C         11.0540    6.6220    5.0210 C.2   103  TYR103      0.2595
    161  O         10.4370    6.8690    6.0440 O.2   103  TYR103     -0.2718
    162  CB         9.7750    5.3480    3.2900 C.3   103  TYR103      0.0548
    163  CG         8.7280    5.3600    2.1940 C.ar  103  TYR103     -0.0200
    164  CD1        8.5210    6.4880    1.4040 C.ar  103  TYR103     -0.0009
    165  CD2        7.9740    4.2060    1.9200 C.ar  103  TYR103     -0.0009
    166  CE1        7.5610    6.4860    0.3830 C.ar  103  TYR103      0.0417
    167  CE2        7.0180    4.1910    0.9220 C.ar  103  TYR103      0.0417
    168  CZ         6.8190    5.3250    0.1470 C.ar  103  TYR103      0.1957
    169  OH         5.8810    5.3140   -0.8600 O.3   103  TYR103     -0.2866
    170  N         12.3410    6.2710    5.0260 N.am  104  LEU104     -0.1980
    171  CA        13.1220    6.2770    6.2580 C.3   104  LEU104      0.1596
    172  C         13.2690    7.6940    6.8340 C.2   104  LEU104      0.2287
    173  O         13.3630    7.8790    8.0640 O.2   104  LEU104     -0.2864
    174  CB        14.5070    5.6530    6.0460 C.3   104  LEU104      0.0297
    175  CG        14.5790    4.2050    5.5430 C.3   104  LEU104      0.0022
    176  CD1       16.0470    3.7960    5.2540 C.3   104  LEU104      0.0001
    177  CD2       13.9190    3.2330    6.5400 C.3   104  LEU104      0.0001
    178  N          9.9880    8.4180    8.5530 N.3   107  ILE107     -0.1245
    179  CA         9.8690    7.7620    9.8650 C.3   107  ILE107      0.1561
    180  C         10.8070    8.4100   10.9120 C.2   107  ILE107      0.2260
    181  O         10.4320    8.5010   12.0790 O.2   107  ILE107     -0.2867
    182  CB        10.0200    6.1990    9.8100 C.3   107  ILE107      0.0252
    183  CG1        9.2610    5.5690   11.0100 C.3   107  ILE107      0.0019
    184  CG2       11.4880    5.8040    9.7520 C.3   107  ILE107      0.0019
    185  CD1        9.2560    4.0490   11.0820 C.3   107  ILE107      0.0001
    186  N          9.5700    9.9550   14.4150 N.3   111  ILE111     -0.1245
    187  CA        10.1850    9.5810   15.6970 C.3   111  ILE111      0.1561
    188  C         10.5610   10.8440   16.4910 C.2   111  ILE111      0.2260
    189  O         10.2400   10.9780   17.6810 O.2   111  ILE111     -0.2867
    190  CB        11.3960    8.6380   15.4690 C.3   111  ILE111      0.0252
    191  CG1       10.8930    7.2250   15.1040 C.3   111  ILE111      0.0019
    192  CG2       12.3280    8.5900   16.6920 C.3   111  ILE111      0.0019
    193  CD1       11.9880    6.2920   14.6250 C.3   111  ILE111      0.0001
    194  N         21.9850    6.6060   10.4670 N.3   138  PHE138     -0.1241
    195  CA        21.2370    5.3770   10.1920 C.3   138  PHE138      0.1605
    196  C         20.8240    5.3130    8.7300 C.2   138  PHE138      0.2264
    197  O         21.0900    4.3200    8.0430 O.2   138  PHE138     -0.2867
    198  CB        20.0420    5.2670   11.1470 C.3   138  PHE138      0.0534
    199  CG        18.9650    4.2790   10.7080 C.ar  138  PHE138     -0.0203
    200  CD1       19.1810    2.9070   10.7650 C.ar  138  PHE138     -0.0042
    201  CD2       17.7250    4.7350   10.2980 C.ar  138  PHE138     -0.0042
    202  CE1       18.1920    2.0040   10.3880 C.ar  138  PHE138     -0.0003
    203  CE2       16.7120    3.8380    9.9110 C.ar  138  PHE138     -0.0003
    204  CZ        16.9560    2.4680    9.9550 C.ar  138  PHE138     -0.0000
@<TRIPOS>BOND
     1    32    31    1
     2    31    30    1
     3   169   168    1
     4    30    29    1
     5   143   142    2
     6   168   166   ar
     7   168   167   ar
     8   166   164   ar
     9   142   141    1
    10   150   151    1
    11   167   165   ar
    12    50    49   ar
    13   152   153    2
    14   152   151    1
    15   133   132    2
    16   140   141    1
    17    51    49   ar
    18    29    28    1
    19   141   144    1
    20   164   163   ar
    21   151   154    1
    22    49    48    1
    23    24    25    1
    24   132   131    1
    25    25    28    1
    26    25    26    1
    27   165   163   ar
    28   163   162    1
    29    17    18    1
    30   158   159    1
    31   127   126    2
    32   144   145    1
    33    26    27    2
    34    26    33   am
    35    48    45    1
    36   157   155    1
    37   154   155    1
    38   154   156    1
    39    45    44    1
    40    45    46    1
    41   131   130    1
    42   131   134    1
    43    18    19    1
    44    18    21    1
    45   162   159    1
    46   126   130   am
    47   126   125    1
    48    33    34    1
    49    44    35   am
    50   159   160    1
    51    19    20    2
    52   145   146   ar
    53   145   147   ar
    54   146   148   ar
    55    23    21    1
    56    47    46    2
    57   125   124    1
    58   125   128    1
    59   134   135    1
    60    35    36    2
    61    35    34    1
    62    46    52   am
    63    21    22    1
    64    34    37    1
    65   147   149   ar
    66   148   149   ar
    67   160   170   am
    68   160   161    2
    69   170   171    1
    70   176   175    1
    71   128   129    1
    72   135   137   ar
    73   135   136   ar
    74   175   174    1
    75   175   177    1
    76    52    53    1
    77    37    38    1
    78   137   139   ar
    79    39    38   ar
    80    39    41   ar
    81   119   118    2
    82   174   171    1
    83   171   172    1
    84   136   138   ar
    85    38    40   ar
    86    41    43   ar
    87    53    54    1
    88    53    56    1
    89    63    64    2
    90    63    62    1
    91   118   117    1
    92   172   173    2
    93    61    54   am
    94    61    62    1
    95   139   138   ar
    96   112   111    2
    97    54    55    2
    98    40    42   ar
    99    43    42   ar
   100    62    65    1
   101    56    57    1
   102    12    11    2
   103    15    14    1
   104   111   110    1
   105   111   116   am
   106   197   196    2
   107   117   116    1
   108   117   120    1
   109   110   109    1
   110   110   113    1
   111    65    66    1
   112   123   121    1
   113    14    16    1
   114    14    13    1
   115    57    58    1
   116   178   179    1
   117   109   115    1
   118   196   195    1
   119    11    10    1
   120    58    59    1
   121   120   121    1
   122    66    68   ar
   123    66    67   ar
   124   121   122    1
   125   113   114    1
   126    68    70   ar
   127   184   182    1
   128    10    13    1
   129    10     9    1
   130   182   179    1
   131   182   183    1
   132   179   180    1
   133   203   204   ar
   134   203   201   ar
   135   115   114    1
   136   204   202   ar
   137    67    69   ar
   138   195   194    1
   139   195   198    1
   140   201   199   ar
   141   202   200   ar
   142    70    71   ar
   143    81    80   ar
   144    81    79   ar
   145    59    60    1
   146   199   200   ar
   147   199   198    1
   148    80    78   ar
   149   180   181    2
   150    69    71   ar
   151   183   185    1
   152    79    77   ar
   153     4     3    2
   154    78    77   ar
   155    77    76    1
   156     7     6    1
   157     6     5    1
   158     6     8    1
   159    95    93    1
   160     3     2    1
   161    76    73    1
   162     2     5    1
   163     2     1    1
   164    94    93    1
   165    93    90    1
   166    87    86    1
   167   107   106    1
   168    73    74    1
   169    73    72    1
   170   186   187    1
   171    90    89    1
   172    90    91    1
   173   100    97    1
   174   193   191    1
   175    75    74    2
   176    86    88    1
   177    86    83    1
   178   191   190    1
   179    89    84   am
   180   108   106    1
   181    92    91    2
   182   190   187    1
   183   190   192    1
   184   106   105    1
   185    84    85    2
   186    84    83    1
   187   105   102    1
   188   187   188    1
   189   102   101    1
   190   102   103    1
   191   101    98   am
   192    98    97    1
   193    98    99    2
   194    97    96    1
   195    83    82    1
   196   188   189    2
   197   104   103    2
