@<TRIPOS>MOLECULE
tmp/2indA00.pdb
 234 221 0 0 0
SMALL
GASTEIGER

@<TRIPOS>ATOM
      1  N        -41.3210   36.7780  -51.6100 N.3    91  THR91      -0.1218
      2  CA       -41.7170   37.6900  -50.5360 C.3    91  THR91       0.1862
      3  C        -42.4490   38.9030  -51.1160 C.2    91  THR91       0.2287
      4  O        -43.4620   39.3330  -50.5770 O.2    91  THR91      -0.2866
      5  CB       -40.4850   38.1870  -49.7370 C.3    91  THR91       0.1770
      6  OG1      -39.8600   37.0710  -49.1010 O.3    91  THR91      -0.2211
      7  CG2      -40.8960   39.2030  -48.6750 C.3    91  THR91       0.0375
      8  N        -45.9910   37.9450  -52.7010 N.3    94  LEU94      -0.1231
      9  CA       -46.9470   37.7050  -51.6340 C.3    94  LEU94       0.1693
     10  C        -47.3910   39.0560  -51.0640 C.2    94  LEU94       0.2592
     11  O        -48.5770   39.2980  -50.8580 O.2    94  LEU94      -0.2718
     12  CB       -46.2890   36.8510  -50.5490 C.3    94  LEU94       0.0284
     13  CG       -46.9300   36.7980  -49.1640 C.3    94  LEU94       0.0019
     14  CD1      -48.4150   36.5270  -49.2810 C.3    94  LEU94       0.0001
     15  CD2      -46.2380   35.7140  -48.3450 C.3    94  LEU94       0.0001
     16  N        -46.4240   39.9370  -50.8280 N.am   95  HIS95      -0.1976
     17  CA       -46.6890   41.2610  -50.2860 C.3    95  HIS95       0.1656
     18  C        -47.6760   42.0640  -51.1430 C.2    95  HIS95       0.2291
     19  O        -48.7220   42.4980  -50.6650 O.2    95  HIS95      -0.2864
     20  CB       -45.3710   42.0340  -50.1620 C.3    95  HIS95       0.0771
     21  CG       -45.5420   43.4550  -49.7240 C.ar   95  HIS95       0.0820
     22  ND1      -45.8770   43.8040  -48.4310 N.ar   95  HIS95      -0.2267
     23  CD2      -45.4470   44.6170  -50.4150 C.ar   95  HIS95       0.1154
     24  CE1      -45.9830   45.1190  -48.3440 C.ar   95  HIS95       0.1986
     25  NE2      -45.7280   45.6360  -49.5340 N.ar   95  HIS95      -0.2212
     26  N        -51.2620   40.4500  -51.5780 N.3    98  ALA98      -0.1231
     27  CA       -52.0190   40.4930  -50.3370 C.3    98  ALA98       0.1694
     28  C        -52.3730   41.8840  -49.8490 C.2    98  ALA98       0.2591
     29  O        -53.3830   42.0700  -49.1750 O.2    98  ALA98      -0.2718
     30  CB       -51.2500   39.7620  -49.2480 C.3    98  ALA98       0.0304
     31  N        -51.5780   42.8770  -50.2240 N.am   99  ILE99      -0.1980
     32  CA       -51.8000   44.2090  -49.6940 C.3    99  ILE99       0.1595
     33  C        -52.1740   45.3850  -50.5840 C.2    99  ILE99       0.2287
     34  O        -52.8580   46.3050  -50.1180 O.2    99  ILE99      -0.2864
     35  CB       -50.5630   44.5670  -48.8050 C.3    99  ILE99       0.0276
     36  CG1      -50.9760   44.4890  -47.3430 C.3    99  ILE99       0.0022
     37  CG2      -49.9790   45.9230  -49.1570 C.3    99  ILE99       0.0022
     38  CD1      -51.6140   43.1680  -46.9710 C.3    99  ILE99       0.0001
     39  N        -55.7860   46.2090  -50.4800 N.3   102  GLU102     -0.1231
     40  CA       -56.2570   46.4360  -49.1140 C.3   102  GLU102      0.1699
     41  C        -55.7590   47.8400  -48.7230 C.2   102  GLU102      0.2592
     42  O        -56.4140   48.5630  -47.9750 O.2   102  GLU102     -0.2718
     43  CB       -55.7350   45.3450  -48.1670 C.3   102  GLU102      0.0402
     44  CG       -56.3390   43.9540  -48.4570 C.3   102  GLU102      0.1161
     45  CD       -57.8360   43.8600  -48.1610 C.2   102  GLU102      0.3649
     46  OE1      -58.5320   44.8930  -48.1690 O.co2 102  GLU102     -0.2457
     47  OE2      -58.3370   42.7410  -47.9310 O.co2 102  GLU102     -0.2457
     48  N        -54.6100   48.2390  -49.2590 N.am  103  GLU103     -0.1979
     49  CA       -54.1020   49.5870  -48.9950 C.3   103  GLU103      0.1602
     50  C        -55.1380   50.5840  -49.5330 C.2   103  GLU103      0.2287
     51  O        -55.5220   51.5470  -48.8510 O.2   103  GLU103     -0.2864
     52  CB       -52.7720   49.8160  -49.7180 C.3   103  GLU103      0.0415
     53  CG       -51.5570   49.1140  -49.1140 C.3   103  GLU103      0.1163
     54  CD       -50.9850   49.8570  -47.9140 C.2   103  GLU103      0.3649
     55  OE1      -49.8160   49.6020  -47.5490 O.co2 103  GLU103     -0.2457
     56  OE2      -51.7060   50.6940  -47.3330 O.co2 103  GLU103     -0.2457
     57  N        -58.2230   50.8440  -47.5500 N.3   106  ALA106     -0.1245
     58  CA       -58.0010   51.5970  -46.3120 C.3   106  ALA106      0.1562
     59  C        -58.3400   53.0840  -46.4750 C.2   106  ALA106      0.2260
     60  O        -58.6420   53.7640  -45.4850 O.2   106  ALA106     -0.2867
     61  CB       -56.5520   51.4370  -45.8530 C.3   106  ALA106      0.0290
     62  N        -53.3260   56.3940  -48.0100 N.3   133  GLU133     -0.1245
     63  CA       -53.6540   55.0570  -48.4880 C.3   133  GLU133      0.1567
     64  C        -53.9380   55.0760  -49.9900 C.2   133  GLU133      0.2260
     65  O        -53.8080   54.0560  -50.6690 O.2   133  GLU133     -0.2867
     66  CB       -54.8610   54.5130  -47.7290 C.3   133  GLU133      0.0388
     67  CG       -54.8050   54.6820  -46.2030 C.3   133  GLU133      0.1160
     68  CD       -53.8180   53.7570  -45.5020 C.2   133  GLU133      0.3649
     69  OE1      -54.1200   53.3840  -44.3520 O.co2 133  GLU133     -0.2457
     70  OE2      -52.7530   53.4090  -46.0630 O.co2 133  GLU133     -0.2457
     71  N        -59.3090   42.5230  -42.9520 N.3   175  PHE175     -0.1241
     72  CA       -59.5570   43.9100  -43.3040 C.3   175  PHE175      0.1605
     73  C        -61.0070   44.3670  -43.2450 C.2   175  PHE175      0.2264
     74  O        -61.2930   45.4150  -42.6670 O.2   175  PHE175     -0.2867
     75  CB       -58.9280   44.2180  -44.6670 C.3   175  PHE175      0.0534
     76  CG       -57.4250   44.2770  -44.6240 C.ar  175  PHE175     -0.0203
     77  CD1      -56.7800   45.2820  -43.9070 C.ar  175  PHE175     -0.0042
     78  CD2      -56.6570   43.3150  -45.2600 C.ar  175  PHE175     -0.0042
     79  CE1      -55.3980   45.3300  -43.8220 C.ar  175  PHE175     -0.0003
     80  CE2      -55.2770   43.3460  -45.1840 C.ar  175  PHE175     -0.0003
     81  CZ       -54.6400   44.3590  -44.4620 C.ar  175  PHE175     -0.0000
     82  N        -61.6520   47.3260  -40.6270 N.3   179  MET179     -0.1245
     83  CA       -61.8340   48.6780  -41.1400 C.3   179  MET179      0.1570
     84  C        -62.9780   49.0190  -42.0890 C.2   179  MET179      0.2261
     85  O        -63.3870   50.1800  -42.1590 O.2   179  MET179     -0.2867
     86  CB       -60.5190   49.1460  -41.7750 C.3   179  MET179      0.0387
     87  CG       -59.9640   48.2070  -42.8440 C.3   179  MET179      0.0595
     88  SD       -58.4330   48.7600  -43.6680 S.3   179  MET179     -0.1393
     89  CE       -58.6630   48.0520  -45.3350 C.3   179  MET179      0.0692
     90  N        -58.0350   49.6720  -36.3880 N.3   191  LEU191     -0.1245
     91  CA       -57.1120   49.8080  -37.5100 C.3   191  LEU191      0.1561
     92  C        -55.8370   50.6070  -37.2380 C.2   191  LEU191      0.2260
     93  O        -54.7410   50.0550  -37.3010 O.2   191  LEU191     -0.2867
     94  CB       -57.8320   50.4150  -38.7220 C.3   191  LEU191      0.0270
     95  CG       -56.9450   50.7910  -39.9200 C.3   191  LEU191      0.0019
     96  CD1      -56.2910   49.5380  -40.4980 C.3   191  LEU191      0.0001
     97  CD2      -57.7790   51.5100  -40.9750 C.3   191  LEU191      0.0001
     98  N        -53.7040   47.6280  -35.4630 N.3   195  PHE195     -0.1227
     99  CA       -52.9530   47.0900  -36.5950 C.3   195  PHE195      0.1736
    100  C        -51.7580   47.8980  -37.0950 C.2   195  PHE195      0.2595
    101  O        -50.6710   47.3520  -37.2800 O.2   195  PHE195     -0.2718
    102  CB       -53.9080   46.8310  -37.7640 C.3   195  PHE195      0.0547
    103  CG       -53.2540   46.1860  -38.9500 C.ar  195  PHE195     -0.0202
    104  CD1      -52.7790   44.8840  -38.8730 C.ar  195  PHE195     -0.0042
    105  CD2      -53.1240   46.8790  -40.1510 C.ar  195  PHE195     -0.0042
    106  CE1      -52.1840   44.2740  -39.9770 C.ar  195  PHE195     -0.0003
    107  CE2      -52.5310   46.2820  -41.2660 C.ar  195  PHE195     -0.0003
    108  CZ       -52.0600   44.9770  -41.1790 C.ar  195  PHE195     -0.0000
    109  N        -51.9470   49.1890  -37.3340 N.am  196  GLU196     -0.1979
    110  CA       -50.8600   50.0140  -37.8530 C.3   196  GLU196      0.1602
    111  C        -49.8110   50.3610  -36.7950 C.2   196  GLU196      0.2287
    112  O        -48.6390   49.9960  -36.9200 O.2   196  GLU196     -0.2864
    113  CB       -51.4330   51.2900  -38.4850 C.3   196  GLU196      0.0415
    114  CG       -52.3700   51.0220  -39.6700 C.3   196  GLU196      0.1163
    115  CD       -53.0980   52.2670  -40.1600 C.2   196  GLU196      0.3649
    116  OE1      -53.5330   53.0700  -39.3070 O.co2 196  GLU196     -0.2457
    117  OE2      -53.2580   52.4370  -41.3910 O.co2 196  GLU196     -0.2457
    118  N        -47.8160   46.8970  -38.3030 N.3   200  THR200     -0.1218
    119  CA       -47.2220   47.3740  -39.5470 C.3   200  THR200      0.1862
    120  C        -46.2000   48.4980  -39.4760 C.2   200  THR200      0.2287
    121  O        -45.2850   48.5540  -40.3000 O.2   200  THR200     -0.2866
    122  CB       -48.3300   47.7570  -40.5500 C.3   200  THR200      0.1770
    123  OG1      -49.0820   48.8700  -40.0530 O.3   200  THR200     -0.2211
    124  CG2      -49.2590   46.5910  -40.7400 C.3   200  THR200      0.0375
    125  N        -43.1760   46.4830  -38.6610 N.3   203  GLN203     -0.1231
    126  CA       -42.9650   45.4720  -39.6860 C.3   203  GLN203      0.1698
    127  C        -42.3210   46.0920  -40.9180 C.2   203  GLN203      0.2592
    128  O        -41.3080   45.6030  -41.4130 O.2   203  GLN203     -0.2718
    129  CB       -44.2890   44.8360  -40.0940 C.3   203  GLN203      0.0381
    130  CG       -44.2150   44.1390  -41.4420 C.3   203  GLN203      0.0905
    131  CD       -45.5760   43.8500  -42.0140 C.2   203  GLN203      0.2608
    132  OE1      -46.4560   44.7080  -42.0070 O.2   203  GLN203     -0.2717
    133  NE2      -45.7600   42.6390  -42.5270 N.am  203  GLN203     -0.0878
    134  N        -42.9190   47.1720  -41.4090 N.am  204  PHE204     -0.1976
    135  CA       -42.4140   47.8600  -42.5890 C.3   204  PHE204      0.1639
    136  C        -40.9910   48.3410  -42.4010 C.2   204  PHE204      0.2290
    137  O        -40.2290   48.4520  -43.3600 O.2   204  PHE204     -0.2864
    138  CB       -43.3240   49.0410  -42.9310 C.3   204  PHE204      0.0560
    139  CG       -44.4180   48.7000  -43.9080 C.ar  204  PHE204     -0.0200
    140  CD1      -45.1150   47.4970  -43.8070 C.ar  204  PHE204     -0.0042
    141  CD2      -44.7500   49.5820  -44.9330 C.ar  204  PHE204     -0.0042
    142  CE1      -46.1290   47.1770  -44.7200 C.ar  204  PHE204     -0.0003
    143  CE2      -45.7590   49.2700  -45.8450 C.ar  204  PHE204     -0.0003
    144  CZ       -46.4480   48.0670  -45.7370 C.ar  204  PHE204     -0.0000
    145  N        -38.7640   46.7370  -40.6000 N.3   206  GLY206     -0.1210
    146  CA       -37.9730   45.5290  -40.7580 C.3   206  GLY206      0.1956
    147  C        -37.9770   45.0440  -42.1950 C.2   206  GLY206      0.2611
    148  O        -36.9920   44.4860  -42.6770 O.2   206  GLY206     -0.2717
    149  N        -39.0920   45.2600  -42.8850 N.am  207  LEU207     -0.1979
    150  CA       -39.2140   44.8470  -44.2770 C.3   207  LEU207      0.1596
    151  C        -38.2570   45.6560  -45.1330 C.2   207  LEU207      0.2287
    152  O        -37.5740   45.1080  -45.9970 O.2   207  LEU207     -0.2864
    153  CB       -40.6540   45.0390  -44.7650 C.3   207  LEU207      0.0297
    154  CG       -40.9170   44.7350  -46.2440 C.3   207  LEU207      0.0022
    155  CD1      -40.3990   43.3410  -46.5980 C.3   207  LEU207      0.0001
    156  CD2      -42.4110   44.8510  -46.5160 C.3   207  LEU207      0.0001
    157  N        -34.7110   44.3430  -44.6680 N.3   210  ASP210     -0.1239
    158  CA       -34.4810   43.0850  -45.3870 C.3   210  ASP210      0.1674
    159  C        -34.3280   43.3140  -46.8860 C.2   210  ASP210      0.2266
    160  O        -33.5090   42.6680  -47.5480 O.2   210  ASP210     -0.2867
    161  CB       -35.6330   42.1030  -45.1550 C.3   210  ASP210      0.1410
    162  CG       -35.7570   41.6760  -43.7020 C.2   210  ASP210      0.3668
    163  OD1      -34.7130   41.4320  -43.0550 O.co2 210  ASP210     -0.2456
    164  OD2      -36.9030   41.5700  -43.2130 O.co2 210  ASP210     -0.2456
    165  N        -47.4430   56.1870  -42.7340 N.3   230  GLU230     -0.1245
    166  CA       -48.1380   55.3660  -41.7500 C.3   230  GLU230      0.1567
    167  C        -47.8610   55.8710  -40.3420 C.2   230  GLU230      0.2260
    168  O        -48.7630   55.9960  -39.5130 O.2   230  GLU230     -0.2867
    169  CB       -47.6750   53.9070  -41.8590 C.3   230  GLU230      0.0388
    170  CG       -48.1270   53.1820  -43.1210 C.3   230  GLU230      0.1160
    171  CD       -49.6380   53.0440  -43.2040 C.2   230  GLU230      0.3649
    172  OE1      -50.2350   53.5800  -44.1560 O.co2 230  GLU230     -0.2457
    173  OE2      -50.2290   52.4060  -42.3130 O.co2 230  GLU230     -0.2457
    174  N        -53.3370   37.0410  -38.8200 N.3   267  LEU267     -0.1231
    175  CA       -52.9380   37.3470  -40.1820 C.3   267  LEU267      0.1693
    176  C        -51.4300   37.4490  -40.2270 C.2   267  LEU267      0.2592
    177  O        -50.7810   36.9410  -41.1420 O.2   267  LEU267     -0.2718
    178  CB       -53.5330   38.6760  -40.6490 C.3   267  LEU267      0.0284
    179  CG       -53.2100   38.9770  -42.1190 C.3   267  LEU267      0.0019
    180  CD1      -54.0430   38.0530  -42.9990 C.3   267  LEU267      0.0001
    181  CD2      -53.5010   40.4290  -42.4510 C.3   267  LEU267      0.0001
    182  N        -50.8750   38.1120  -39.2240 N.am  268  PHE268     -0.1976
    183  CA       -49.4370   38.3110  -39.1480 C.3   268  PHE268      0.1639
    184  C        -48.6720   36.9950  -39.0890 C.2   268  PHE268      0.2290
    185  O        -47.5880   36.8820  -39.6510 O.2   268  PHE268     -0.2864
    186  CB       -49.0990   39.1570  -37.9150 C.3   268  PHE268      0.0560
    187  CG       -47.9550   40.1110  -38.1260 C.ar  268  PHE268     -0.0200
    188  CD1      -48.0940   41.2030  -38.9830 C.ar  268  PHE268     -0.0042
    189  CD2      -46.7450   39.9270  -37.4590 C.ar  268  PHE268     -0.0042
    190  CE1      -47.0420   42.1020  -39.1720 C.ar  268  PHE268     -0.0003
    191  CE2      -45.6890   40.8150  -37.6400 C.ar  268  PHE268     -0.0003
    192  CZ       -45.8380   41.9070  -38.4990 C.ar  268  PHE268     -0.0000
    193  N        -48.5940   35.6470  -42.8500 N.3   271  LEU271     -0.1231
    194  CA       -47.9380   36.4670  -43.8610 C.3   271  LEU271      0.1693
    195  C        -46.5060   36.9330  -43.5770 C.2   271  LEU271      0.2592
    196  O        -45.6980   37.0620  -44.5040 O.2   271  LEU271     -0.2718
    197  CB       -48.8140   37.6820  -44.1760 C.3   271  LEU271      0.0284
    198  CG       -50.2260   37.3650  -44.6740 C.3   271  LEU271      0.0019
    199  CD1      -50.9670   38.6560  -44.9490 C.3   271  LEU271      0.0001
    200  CD2      -50.1540   36.5180  -45.9370 C.3   271  LEU271      0.0001
    201  N        -46.1810   37.1810  -42.3120 N.am  272  THR272     -0.1953
    202  CA       -44.8400   37.6590  -41.9720 C.3   272  THR272      0.1897
    203  C        -43.9260   36.6130  -41.3280 C.2   272  THR272      0.2313
    204  O        -42.7720   36.4580  -41.7340 O.2   272  THR272     -0.2863
    205  CB       -44.9260   38.8760  -41.0290 C.3   272  THR272      0.1794
    206  OG1      -45.7980   39.8590  -41.6040 O.3   272  THR272     -0.2208
    207  CG2      -43.5400   39.4870  -40.8110 C.3   272  THR272      0.0378
    208  N        -42.0830   34.2300  -43.6230 N.3   275  ILE275     -0.1231
    209  CA       -41.0920   34.9430  -44.4100 C.3   275  ILE275      0.1692
    210  C        -39.7420   35.0970  -43.7230 C.2   275  ILE275      0.2591
    211  O        -38.7090   34.7490  -44.3000 O.2   275  ILE275     -0.2718
    212  CB       -41.5840   36.3550  -44.8260 C.3   275  ILE275      0.0266
    213  CG1      -42.8320   36.2460  -45.7060 C.3   275  ILE275      0.0019
    214  CG2      -40.4840   37.0770  -45.6100 C.3   275  ILE275      0.0020
    215  CD1      -42.6070   35.4760  -46.9930 C.3   275  ILE275      0.0001
    216  N        -39.7230   35.6080  -42.4980 N.am  276  MET276     -0.1979
    217  CA       -38.4270   35.7970  -41.8720 C.3   276  MET276      0.1605
    218  C        -37.7480   34.5610  -41.3020 C.2   276  MET276      0.2287
    219  O        -36.5350   34.5620  -41.1140 O.2   276  MET276     -0.2864
    220  CB       -38.4700   36.9330  -40.8320 C.3   276  MET276      0.0413
    221  CG       -39.6560   36.9920  -39.8880 C.3   276  MET276      0.0598
    222  SD       -39.6910   38.6330  -39.0560 S.3   276  MET276     -0.1393
    223  CE       -38.1910   38.5530  -38.0850 C.3   276  MET276      0.0692
    224  N        -38.2400   39.1440  -32.9810 N.3   292  PHE292     -0.1241
    225  CA       -38.7740   40.3790  -33.5480 C.3   292  PHE292      0.1605
    226  C        -40.0710   40.7870  -32.8630 C.2   292  PHE292      0.2264
    227  O        -40.2780   41.9570  -32.5510 O.2   292  PHE292     -0.2867
    228  CB       -39.0400   40.1990  -35.0450 C.3   292  PHE292      0.0534
    229  CG       -39.7760   41.3480  -35.6700 C.ar  292  PHE292     -0.0203
    230  CD1      -39.1010   42.5080  -36.0320 C.ar  292  PHE292     -0.0042
    231  CD2      -41.1580   41.2830  -35.8600 C.ar  292  PHE292     -0.0042
    232  CE1      -39.7870   43.5940  -36.5750 C.ar  292  PHE292     -0.0003
    233  CE2      -41.8580   42.3600  -36.4010 C.ar  292  PHE292     -0.0003
    234  CZ       -41.1710   43.5210  -36.7590 C.ar  292  PHE292     -0.0000
@<TRIPOS>BOND
     1     8     9    1
     2     9    10    1
     3     9    12    1
     4     1     2    1
     5    26    27    1
     6    18    19    2
     7    18    17    1
     8     3     4    2
     9     3     2    1
    10    10    11    2
    11    10    16   am
    12    16    17    1
    13    65    64    2
    14    33    34    2
    15    33    32    1
    16    12    13    1
    17     2     5    1
    18    39    40    1
    19    23    21   ar
    20    23    25   ar
    21    27    28    1
    22    27    30    1
    23    17    20    1
    24    31    28   am
    25    31    32    1
    26    20    21    1
    27    64    63    1
    28    28    29    2
    29     5     6    1
    30     5     7    1
    31    21    22   ar
    32    52    53    1
    33    52    49    1
    34    32    35    1
    35    25    24   ar
    36    50    49    1
    37    50    51    2
    38    14    13    1
    39    48    49    1
    40    48    41   am
    41    13    15    1
    42    37    35    1
    43    53    54    1
    44    40    41    1
    45    40    43    1
    46    35    36    1
    47    41    42    2
    48    63    62    1
    49    63    66    1
    50    44    43    1
    51    44    45    1
    52    22    24   ar
    53    46    45   ar
    54    45    47   ar
    55    54    55   ar
    56    54    56   ar
    57    66    67    1
    58    57    58    1
    59   160   159    2
    60    36    38    1
    61   215   213    1
    62   159   158    1
    63   155   154    1
    64   156   154    1
    65    59    58    1
    66    59    60    2
    67    58    61    1
    68   154   153    1
    69    67    68    1
    70    70    68   ar
    71   152   151    2
    72   200   198    1
    73   143   144   ar
    74   143   141   ar
    75   144   142   ar
    76   213   212    1
    77   214   212    1
    78    68    69   ar
    79   158   161    1
    80   158   157    1
    81    89    88    1
    82    78    80   ar
    83    78    76   ar
    84    80    81   ar
    85   161   162    1
    86   151   150    1
    87   199   198    1
    88   141   139   ar
    89   212   209    1
    90   153   150    1
    91   142   140   ar
    92   198   197    1
    93    75    76    1
    94    75    72    1
    95    76    77   ar
    96   196   195    2
    97    81    79   ar
    98   209   210    1
    99   209   208    1
   100   211   210    2
   101   150   149    1
   102   197   194    1
   103   172   171   ar
   104   139   140   ar
   105   139   138    1
   106    77    79   ar
   107   194   195    1
   108   194   193    1
   109   210   216   am
   110   162   164   ar
   111   162   163   ar
   112    88    87    1
   113   195   201   am
   114   137   136    2
   115    72    73    1
   116    72    71    1
   117    73    74    2
   118   171   170    1
   119   171   173   ar
   120   170   169    1
   121   180   179    1
   122   138   135    1
   123   149   147   am
   124    87    86    1
   125   165   166    1
   126   148   147    2
   127   135   136    1
   128   135   134    1
   129   133   131   am
   130   216   217    1
   131   181   179    1
   132   201   202    1
   133   147   146    1
   134    85    84    2
   135   179   178    1
   136    84    83    1
   137   131   132    2
   138   131   130    1
   139   202   203    1
   140   202   205    1
   141   217   218    1
   142   217   220    1
   143   169   166    1
   144    86    83    1
   145   166   167    1
   146   204   203    2
   147   206   205    1
   148   130   129    1
   149   128   127    2
   150   134   127   am
   151   117   115   ar
   152   218   219    2
   153   107   108   ar
   154   107   105   ar
   155   108   106   ar
   156   177   176    2
   157    83    82    1
   158   205   207    1
   159    97    95    1
   160   127   126    1
   161   220   221    1
   162   146   145    1
   163   124   122    1
   164   178   175    1
   165   122   123    1
   166   122   119    1
   167    96    95    1
   168   167   168    2
   169   121   120    2
   170   176   175    1
   171   176   182   am
   172   175   174    1
   173   115   114    1
   174   115   116   ar
   175   105   103   ar
   176   129   126    1
   177   106   104   ar
   178    95    94    1
   179   221   222    1
   180   126   125    1
   181   114   113    1
   182   185   184    2
   183   119   120    1
   184   119   118    1
   185   182   183    1
   186   190   188   ar
   187   190   192   ar
   188   183   184    1
   189   183   186    1
   190   222   223    1
   191   188   187   ar
   192   103   104   ar
   193   103   102    1
   194    94    91    1
   195   192   191   ar
   196   113   110    1
   197   187   186    1
   198   187   189   ar
   199   110   109    1
   200   110   111    1
   201   102    99    1
   202   191   189   ar
   203    91    92    1
   204    91    90    1
   205   109   100   am
   206    93    92    2
   207   101   100    2
   208   100    99    1
   209   112   111    2
   210   234   232   ar
   211   234   233   ar
   212    99    98    1
   213   232   230   ar
   214   233   231   ar
   215   230   229   ar
   216   231   229   ar
   217   229   228    1
   218   228   225    1
   219   225   224    1
   220   225   226    1
   221   226   227    2
