@<TRIPOS>MOLECULE
tmp/2ineA01.pdb
 129 133 0 0 0
SMALL
GASTEIGER

@<TRIPOS>ATOM
      1  N         16.0730   24.2430   70.9920 N.3    19  TRP19      -0.1241
      2  CA        16.5560   23.5480   69.8020 C.3    19  TRP19       0.1605
      3  C         17.6470   22.5720   70.2240 C.2    19  TRP19       0.2264
      4  O         18.5340   22.9290   71.0030 O.2    19  TRP19      -0.2867
      5  CB        17.1060   24.5460   68.7790 C.3    19  TRP19       0.0550
      6  CG        17.7580   23.9060   67.5700 C.ar   19  TRP19       0.0003
      7  CD1       17.3380   22.7910   66.8970 C.ar   19  TRP19       0.0946
      8  CD2       18.9660   24.3260   66.9250 C.ar   19  TRP19       0.0152
      9  NE1       18.2190   22.4810   65.8910 N.ar   19  TRP19      -0.2442
     10  CE2       19.2260   23.4100   65.8800 C.ar   19  TRP19       0.0810
     11  CE3       19.8520   25.3940   67.1210 C.ar   19  TRP19       0.0012
     12  CZ2       20.3440   23.5260   65.0370 C.ar   19  TRP19       0.0191
     13  CZ3       20.9620   25.5110   66.2820 C.ar   19  TRP19       0.0001
     14  CH2       21.1980   24.5830   65.2580 C.ar   19  TRP19       0.0015
     15  N          9.4820   22.7230   64.4390 N.3    46  VAL46      -0.1231
     16  CA        10.5390   21.9710   63.7720 C.3    46  VAL46       0.1692
     17  C         11.5690   21.3570   64.7470 C.2    46  VAL46       0.2592
     18  O         12.3490   20.4840   64.3740 O.2    46  VAL46      -0.2718
     19  CB        11.2490   22.8700   62.7300 C.3    46  VAL46       0.0266
     20  CG1       12.1700   23.8630   63.4100 C.3    46  VAL46       0.0020
     21  CG2       12.0000   22.0250   61.7240 C.3    46  VAL46       0.0020
     22  N         11.5110   21.7390   66.0160 N.am   47  TYR47      -0.1976
     23  CA        12.4190   21.1690   67.0070 C.3    47  TYR47       0.1639
     24  C         11.9470   19.7720   67.4810 C.2    47  TYR47       0.2290
     25  O         12.6540   19.0880   68.2200 O.2    47  TYR47      -0.2864
     26  CB        12.5660   22.1170   68.2150 C.3    47  TYR47       0.0560
     27  CG        13.1330   23.5000   67.9070 C.ar   47  TYR47      -0.0198
     28  CD1       13.7710   23.7720   66.6910 C.ar   47  TYR47      -0.0009
     29  CD2       13.0370   24.5390   68.8440 C.ar   47  TYR47      -0.0009
     30  CE1       14.2840   25.0440   66.4200 C.ar   47  TYR47       0.0417
     31  CE2       13.5620   25.7990   68.5840 C.ar   47  TYR47       0.0417
     32  CZ        14.1750   26.0500   67.3680 C.ar   47  TYR47       0.1957
     33  OH        14.6050   27.3220   67.0610 O.3    47  TYR47      -0.2866
     34  N          7.0010   27.0800   60.6660 N.3    78  TRP78      -0.1241
     35  CA         7.9830   26.4620   59.7920 C.3    78  TRP78       0.1605
     36  C          7.7300   26.7910   58.3210 C.2    78  TRP78       0.2264
     37  O          6.6430   27.2330   57.9400 O.2    78  TRP78      -0.2867
     38  CB         8.0250   24.9460   60.0190 C.3    78  TRP78       0.0550
     39  CG         9.1650   24.2900   59.2980 C.ar   78  TRP78       0.0003
     40  CD1        9.0650   23.3950   58.2680 C.ar   78  TRP78       0.0946
     41  CD2       10.5520   24.6510   59.3780 C.ar   78  TRP78       0.0152
     42  NE1       10.2900   23.1980   57.6920 N.ar   78  TRP78      -0.2442
     43  CE2       11.2260   23.9480   58.3530 C.ar   78  TRP78       0.0810
     44  CE3       11.2900   25.5170   60.2060 C.ar   78  TRP78       0.0012
     45  CZ2       12.6060   24.0810   58.1280 C.ar   78  TRP78       0.0191
     46  CZ3       12.6600   25.6510   59.9790 C.ar   78  TRP78       0.0001
     47  CH2       13.3000   24.9380   58.9460 C.ar   78  TRP78       0.0015
     48  N          9.5960   31.6500   61.0540 N.3   109  HIS109     -0.1226
     49  CA        10.8990   31.0800   61.4230 C.3   109  HIS109      0.1752
     50  C         12.0090   31.4910   60.4600 C.2   109  HIS109      0.2596
     51  O         13.1190   31.8020   60.8940 O.2   109  HIS109     -0.2718
     52  CB        10.7840   29.5420   61.4790 C.3   109  HIS109      0.0759
     53  CG        11.7780   28.8790   62.3810 C.ar  109  HIS109      0.0818
     54  ND1       11.5210   27.6810   63.0170 N.ar  109  HIS109     -0.2268
     55  CD2       13.0590   29.2000   62.6880 C.ar  109  HIS109      0.1154
     56  CE1       12.5970   27.2920   63.6740 C.ar  109  HIS109      0.1986
     57  NE2       13.5460   28.1940   63.4900 N.ar  109  HIS109     -0.2212
     58  N         11.7270   31.4100   59.1590 N.am  110  TRP110     -0.1976
     59  CA        12.6440   31.8420   58.1060 C.3   110  TRP110      0.1640
     60  C         11.8050   32.5350   57.0300 C.2   110  TRP110      0.2290
     61  O         10.6300   32.2110   56.8630 O.2   110  TRP110     -0.2864
     62  CB        13.3600   30.6280   57.4850 C.3   110  TRP110      0.0576
     63  CG        14.3740   29.9860   58.3760 C.ar  110  TRP110      0.0006
     64  CD1       14.1380   29.0440   59.3410 C.ar  110  TRP110      0.0946
     65  CD2       15.7640   30.3220   58.4800 C.ar  110  TRP110      0.0152
     66  NE1       15.2890   28.7970   60.0590 N.ar  110  TRP110     -0.2442
     67  CE2       16.3020   29.5630   59.5490 C.ar  110  TRP110      0.0810
     68  CE3       16.6110   31.1970   57.7790 C.ar  110  TRP110      0.0012
     69  CZ2       17.6430   29.6590   59.9370 C.ar  110  TRP110      0.0191
     70  CZ3       17.9460   31.2890   58.1710 C.ar  110  TRP110      0.0001
     71  CH2       18.4430   30.5300   59.2390 C.ar  110  TRP110      0.0015
     72  N         12.3220   19.7030   55.1110 N.3   121  PHE121     -0.1241
     73  CA        13.1370   20.1880   53.9980 C.3   121  PHE121      0.1605
     74  C         12.8850   19.3280   52.7670 C.2   121  PHE121      0.2264
     75  O         13.6980   18.4630   52.4280 O.2   121  PHE121     -0.2867
     76  CB        14.6370   20.1320   54.3340 C.3   121  PHE121      0.0534
     77  CG        15.0940   21.2050   55.2780 C.ar  121  PHE121     -0.0203
     78  CD1       15.6740   22.3800   54.7990 C.ar  121  PHE121     -0.0042
     79  CD2       14.9830   21.0290   56.6460 C.ar  121  PHE121     -0.0042
     80  CE1       16.1390   23.3670   55.6750 C.ar  121  PHE121     -0.0003
     81  CE2       15.4470   22.0040   57.5380 C.ar  121  PHE121     -0.0003
     82  CZ        16.0280   23.1740   57.0540 C.ar  121  PHE121     -0.0000
     83  N         19.7660   34.7770   69.1550 N.3   208  TYR208     -0.1241
     84  CA        19.8850   33.3270   69.2860 C.3   208  TYR208      0.1605
     85  C         21.3300   32.8590   69.0780 C.2   208  TYR208      0.2264
     86  O         22.1890   33.6370   68.6560 O.2   208  TYR208     -0.2867
     87  CB        18.9010   32.5970   68.3510 C.3   208  TYR208      0.0534
     88  CG        19.2340   32.5740   66.8740 C.ar  208  TYR208     -0.0201
     89  CD1       20.3260   31.8410   66.3910 C.ar  208  TYR208     -0.0009
     90  CD2       18.3480   33.1170   65.9480 C.ar  208  TYR208     -0.0009
     91  CE1       20.5100   31.6260   65.0270 C.ar  208  TYR208      0.0417
     92  CE2       18.5230   32.9140   64.5800 C.ar  208  TYR208      0.0417
     93  CZ        19.5960   32.1620   64.1280 C.ar  208  TYR208      0.1957
     94  OH        19.6920   31.8860   62.7890 O.3   208  TYR208     -0.2866
     95  N         24.7240   20.4600   64.8710 N.3   217  PRO217     -0.2102
     96  CA        25.0720   19.1670   64.2590 C.3   217  PRO217      0.1504
     97  C         26.0810   19.2250   63.1070 C.2   217  PRO217      0.2575
     98  O         26.5420   18.1780   62.6300 O.2   217  PRO217     -0.2718
     99  CB        23.7210   18.5960   63.7980 C.3   217  PRO217      0.0282
    100  CG        22.7510   19.7440   63.8510 C.3   217  PRO217      0.0208
    101  CD        23.2630   20.6680   64.9180 C.3   217  PRO217      0.0893
    102  N         26.3810   20.4340   62.6300 N.am  218  TRP218     -0.1977
    103  CA        27.3470   20.5990   61.5520 C.3   218  TRP218      0.1640
    104  C         28.6730   21.1680   62.0410 C.2   218  TRP218      0.2290
    105  O         29.4880   21.6380   61.2350 O.2   218  TRP218     -0.2864
    106  CB        26.7750   21.4800   60.4170 C.3   218  TRP218      0.0576
    107  CG        26.1840   22.7950   60.8560 C.ar  218  TRP218      0.0006
    108  CD1       26.8430   23.9940   61.0080 C.ar  218  TRP218      0.0946
    109  CD2       24.8230   23.0410   61.2250 C.ar  218  TRP218      0.0152
    110  NE1       25.9740   24.9560   61.4680 N.ar  218  TRP218     -0.2442
    111  CE2       24.7310   24.4020   61.6030 C.ar  218  TRP218      0.0810
    112  CE3       23.6750   22.2340   61.2750 C.ar  218  TRP218      0.0012
    113  CZ2       23.5230   24.9770   62.0230 C.ar  218  TRP218      0.0191
    114  CZ3       22.4850   22.8060   61.6960 C.ar  218  TRP218      0.0001
    115  CH2       22.4180   24.1670   62.0630 C.ar  218  TRP218      0.0015
    116  N         24.2260   29.5510   61.6480 N.3   297  CYS297     -0.1235
    117  CA        23.0190   29.1620   60.9120 C.3   297  CYS297      0.1677
    118  C         22.8870   29.9310   59.6050 C.2   297  CYS297      0.2270
    119  O         22.3330   31.0230   59.5790 O.2   297  CYS297     -0.2867
    120  CB        21.7720   29.4290   61.7560 C.3   297  CYS297      0.0956
    121  SG        21.4880   28.2810   63.0830 S.3   297  CYS297     -0.0801
    122  N         21.6600   28.5320   56.6910 N.3   299  LEU299     -0.1245
    123  CA        20.6260   27.8930   55.8670 C.3   299  LEU299      0.1561
    124  C         21.1620   27.5720   54.4770 C.2   299  LEU299      0.2260
    125  O         20.6110   28.0120   53.4580 O.2   299  LEU299     -0.2867
    126  CB        19.3930   28.7960   55.7540 C.3   299  LEU299      0.0270
    127  CG        18.1300   28.0810   55.2880 C.3   299  LEU299      0.0019
    128  CD1       17.6470   27.1930   56.4050 C.3   299  LEU299      0.0001
    129  CD2       17.0600   29.0740   54.8870 C.3   299  LEU299      0.0001
@<TRIPOS>BOND
     1    75    74    2
     2    74    73    1
     3   125   124    2
     4    73    76    1
     5    73    72    1
     6    76    77    1
     7   124   123    1
     8    78    77   ar
     9    78    80   ar
    10   129   127    1
    11    77    79   ar
    12   127   126    1
    13   127   128    1
    14    80    82   ar
    15   126   123    1
    16   123   122    1
    17    79    81   ar
    18    61    60    2
    19    60    59    1
    20    82    81   ar
    21    62    59    1
    22    62    63    1
    23    42    40   ar
    24    42    43   ar
    25    68    70   ar
    26    68    65   ar
    27    37    36    2
    28    59    58    1
    29    45    43   ar
    30    45    47   ar
    31    70    71   ar
    32    40    39   ar
    33    36    35    1
    34    43    41   ar
    35    63    65   ar
    36    63    64   ar
    37    65    67   ar
    38    47    46   ar
    39    58    50   am
    40    71    69   ar
    41    39    41   ar
    42    39    38    1
    43    64    66   ar
    44    41    44   ar
    45    67    69   ar
    46    67    66   ar
    47   119   118    2
    48   118   117    1
    49    35    38    1
    50    35    34    1
    51    46    44   ar
    52   106   107    1
    53   106   103    1
    54    50    51    2
    55    50    49    1
    56   107   108   ar
    57   107   109   ar
    58   117   116    1
    59   117   120    1
    60   108   110   ar
    61    48    49    1
    62   109   112   ar
    63   109   111   ar
    64   105   104    2
    65   112   114   ar
    66    49    52    1
    67   110   111   ar
    68    52    53    1
    69   103   104    1
    70   103   102    1
    71   111   113   ar
    72   114   115   ar
    73    21    19    1
    74   120   121    1
    75   113   115   ar
    76    53    55   ar
    77    53    54   ar
    78   102    97   am
    79    98    97    2
    80    55    57   ar
    81    19    20    1
    82    19    16    1
    83    94    93    1
    84    54    56   ar
    85    97    96    1
    86    57    56   ar
    87    16    15    1
    88    16    17    1
    89    99   100    1
    90    99    96    1
    91   100   101    1
    92    93    92   ar
    93    93    91   ar
    94    96    95    1
    95    18    17    2
    96    92    90   ar
    97    17    22   am
    98    95   101    1
    99    91    89   ar
   100    12    14   ar
   101    12    10   ar
   102    14    13   ar
   103    10     9   ar
   104    10     8   ar
   105     9     7   ar
   106    90    88   ar
   107    22    23    1
   108    13    11   ar
   109    89    88   ar
   110    30    28   ar
   111    30    32   ar
   112    28    27   ar
   113    88    87    1
   114     7     6   ar
   115     8    11   ar
   116     8     6   ar
   117    23    24    1
   118    23    26    1
   119    33    32    1
   120    32    31   ar
   121    24    25    2
   122     6     5    1
   123    27    26    1
   124    27    29   ar
   125    87    84    1
   126    31    29   ar
   127    86    85    2
   128     5     2    1
   129    85    84    1
   130    83    84    1
   131     2     3    1
   132     2     1    1
   133     3     4    2
