@<TRIPOS>MOLECULE
tmp/2invA00.pdb
 116 113 0 0 0
SMALL
GASTEIGER

@<TRIPOS>ATOM
      1  N         41.7760   39.5400   21.8430 N.3    78  PHE78      -0.1241
      2  CA        42.9060   39.4930   20.9270 C.3    78  PHE78       0.1605
      3  C         43.7980   40.7220   21.0590 C.2    78  PHE78       0.2264
      4  O         43.3510   41.8230   21.4080 O.2    78  PHE78      -0.2867
      5  CB        42.4680   39.3400   19.4690 C.3    78  PHE78       0.0534
      6  CG        43.6250   39.2770   18.5060 C.ar   78  PHE78      -0.0203
      7  CD1       44.1610   40.4390   17.9670 C.ar   78  PHE78      -0.0042
      8  CD2       44.2180   38.0560   18.1900 C.ar   78  PHE78      -0.0042
      9  CE1       45.2700   40.3960   17.1320 C.ar   78  PHE78      -0.0003
     10  CE2       45.3350   37.9980   17.3520 C.ar   78  PHE78      -0.0003
     11  CZ        45.8590   39.1740   16.8240 C.ar   78  PHE78      -0.0000
     12  N         52.3880   40.0170   17.1700 N.3    82  SER82      -0.1202
     13  CA        53.2610   40.1910   16.0140 C.3    82  SER82       0.2020
     14  C         53.7790   41.6220   15.9530 C.2    82  SER82       0.2618
     15  O         54.9640   41.8520   15.7930 O.2    82  SER82      -0.2717
     16  CB        52.4930   39.8710   14.7260 C.3    82  SER82       0.2103
     17  OG        53.3620   39.8190   13.6110 O.3    82  SER82      -0.2182
     18  N         52.8800   42.5870   16.0780 N.am   83  ILE83      -0.1979
     19  CA        53.2850   43.9810   16.0300 C.3    83  ILE83       0.1595
     20  C         54.1390   44.3410   17.2500 C.2    83  ILE83       0.2287
     21  O         55.1200   45.0670   17.1250 O.2    83  ILE83      -0.2864
     22  CB        52.0550   44.9100   15.8960 C.3    83  ILE83       0.0276
     23  CG1       51.3590   44.6150   14.5660 C.3    83  ILE83       0.0022
     24  CG2       52.4890   46.3670   15.9540 C.3    83  ILE83       0.0022
     25  CD1       50.0450   45.3370   14.3590 C.3    83  ILE83       0.0001
     26  N         56.4670   31.5780   13.7700 N.3   146  TYR146     -0.1241
     27  CA        55.1430   30.9560   13.7390 C.3   146  TYR146      0.1605
     28  C         55.2960   29.5070   14.1520 C.2   146  TYR146      0.2264
     29  O         54.5300   28.6470   13.7210 O.2   146  TYR146     -0.2867
     30  CB        54.5340   30.9660   12.3450 C.3   146  TYR146      0.0534
     31  CG        53.8700   32.2560   11.9400 C.ar  146  TYR146     -0.0201
     32  CD1       52.5340   32.5140   12.2470 C.ar  146  TYR146     -0.0009
     33  CD2       54.5760   33.2050   11.2290 C.ar  146  TYR146     -0.0009
     34  CE1       51.9230   33.6960   11.8490 C.ar  146  TYR146      0.0417
     35  CE2       53.9900   34.3820   10.8170 C.ar  146  TYR146      0.0417
     36  CZ        52.6640   34.6270   11.1270 C.ar  146  TYR146      0.1957
     37  OH        52.0890   35.7990   10.7100 O.3   146  TYR146     -0.2866
     38  N         44.1770   34.5090   14.6830 N.3   190  ALA190     -0.1231
     39  CA        45.2400   35.0990   13.8890 C.3   190  ALA190      0.1694
     40  C         46.6010   35.0890   14.5470 C.2   190  ALA190      0.2591
     41  O         46.7250   34.9430   15.7740 O.2   190  ALA190     -0.2718
     42  CB        44.8660   36.5130   13.5030 C.3   190  ALA190      0.0304
     43  N         47.6210   35.2560   13.7080 N.am  191  GLU191     -0.1979
     44  CA        48.9930   35.2580   14.1700 C.3   191  GLU191      0.1602
     45  C         49.2450   33.8880   14.7910 C.2   191  GLU191      0.2287
     46  O         49.8870   33.7470   15.8300 O.2   191  GLU191     -0.2864
     47  CB        49.2050   36.4190   15.1510 C.3   191  GLU191      0.0415
     48  CG        49.0510   37.7700   14.4200 C.3   191  GLU191      0.1163
     49  CD        49.3480   38.9880   15.2790 C.2   191  GLU191      0.3649
     50  OE1       49.8120   38.8240   16.4280 O.co2 191  GLU191     -0.2457
     51  OE2       49.1300   40.1210   14.7930 O.co2 191  GLU191     -0.2457
     52  N         44.0590   34.6520   10.0710 N.3   212  GLY212     -0.1225
     53  CA        45.3700   34.9830    9.5410 C.3   212  GLY212      0.1811
     54  C         46.3250   33.9310   10.0830 C.2   212  GLY212      0.2280
     55  O         46.5050   33.8170   11.2970 O.2   212  GLY212     -0.2866
     56  N         42.5610   36.8970    5.9850 N.3   236  PHE236     -0.1228
     57  CA        43.6270   37.7970    5.5850 C.3   236  PHE236      0.1721
     58  C         45.0060   37.1630    5.6910 C.2   236  PHE236      0.2437
     59  O         45.1590   36.0280    6.1440 O.2   236  PHE236     -0.2733
     60  CB        43.5330   39.0720    6.4240 C.3   236  PHE236      0.0547
     61  CG        43.2920   38.8090    7.8770 C.ar  236  PHE236     -0.0202
     62  CD1       44.3350   38.3970    8.7040 C.ar  236  PHE236     -0.0042
     63  CD2       42.0160   38.9520    8.4230 C.ar  236  PHE236     -0.0042
     64  CE1       44.1110   38.1370   10.0490 C.ar  236  PHE236     -0.0003
     65  CE2       41.7890   38.6890    9.7780 C.ar  236  PHE236     -0.0003
     66  CZ        42.8390   38.2840   10.5850 C.ar  236  PHE236     -0.0000
     67  N         46.0310   37.8900    5.2460 N.am  237  PRO237     -0.2718
     68  CA        47.4100   37.4310    5.2640 C.3   237  PRO237      0.1535
     69  C         48.1140   36.4950    6.2290 C.2   237  PRO237      0.2598
     70  O         47.8290   36.3900    7.4260 O.2   237  PRO237     -0.2715
     71  CB        48.1730   38.7340    5.1110 C.3   237  PRO237      0.0310
     72  CG        47.4180   39.3410    4.0060 C.3   237  PRO237      0.0237
     73  CD        45.9460   39.1120    4.4160 C.3   237  PRO237      0.0939
     74  N         49.0540   35.2910    6.6960 N.am  238  ARG238     -0.1978
     75  CA        50.0650   34.8160    5.6110 C.3   238  ARG238      0.1597
     76  C         50.1590   33.3520    5.8480 C.2   238  ARG238      0.2287
     77  O         51.2480   32.8180    6.0520 O.2   238  ARG238     -0.2864
     78  CB        51.3300   35.5960    5.9630 C.3   238  ARG238      0.0334
     79  CG        51.9570   35.3320    7.2800 C.3   238  ARG238      0.0492
     80  CD        53.2220   36.2660    7.5840 C.3   238  ARG238      0.2205
     81  NE        53.1800   37.6540    7.2300 N.pl3 238  ARG238     -0.0865
     82  CZ        52.8230   38.6040    8.0700 C.cat 238  ARG238      0.5346
     83  NH1       52.4780   38.3220    9.3180 N.pl3 238  ARG238      0.1354
     84  NH2       52.8270   39.8620    7.6520 N.pl3 238  ARG238      0.1354
     85  N         42.4060   37.5570    1.2340 N.3   259  GLN259     -0.1245
     86  CA        43.5710   38.4040    0.9710 C.3   259  GLN259      0.1566
     87  C         44.8450   37.6350    1.2950 C.2   259  GLN259      0.2260
     88  O         45.0620   37.2500    2.4430 O.2   259  GLN259     -0.2867
     89  CB        43.5290   39.6830    1.8150 C.3   259  GLN259      0.0367
     90  CG        44.5560   40.7300    1.3700 C.3   259  GLN259      0.0905
     91  CD        44.7650   41.8540    2.3620 C.2   259  GLN259      0.2608
     92  OE1       45.1200   42.9760    1.9780 O.2   259  GLN259     -0.2717
     93  NE2       44.5670   41.5590    3.6450 N.am  259  GLN259     -0.0878
     94  N         49.3000   36.9480    0.2530 N.3   261  PHE261     -0.1241
     95  CA        50.5380   37.5060   -0.2950 C.3   261  PHE261      0.1605
     96  C         51.2520   36.4620   -1.1290 C.2   261  PHE261      0.2264
     97  O         52.3610   36.6950   -1.6070 O.2   261  PHE261     -0.2867
     98  CB        51.5210   37.9200    0.8040 C.3   261  PHE261      0.0534
     99  CG        51.0250   39.0040    1.7200 C.ar  261  PHE261     -0.0203
    100  CD1       50.3190   40.0950    1.2320 C.ar  261  PHE261     -0.0042
    101  CD2       51.3520   38.9730    3.0740 C.ar  261  PHE261     -0.0042
    102  CE1       49.9540   41.1420    2.0820 C.ar  261  PHE261     -0.0003
    103  CE2       50.9960   40.0040    3.9230 C.ar  261  PHE261     -0.0003
    104  CZ        50.2980   41.0920    3.4310 C.ar  261  PHE261     -0.0000
    105  N         53.9520   44.0250    5.3550 N.3   288  TYR288     -0.1241
    106  CA        54.5930   44.3210    6.6380 C.3   288  TYR288      0.1605
    107  C         56.0530   43.8600    6.5850 C.2   288  TYR288      0.2264
    108  O         56.3400   42.6660    6.5960 O.2   288  TYR288     -0.2867
    109  CB        53.8140   43.6190    7.7480 C.3   288  TYR288      0.0534
    110  CG        54.1760   43.9780    9.1740 C.ar  288  TYR288     -0.0201
    111  CD1       54.2930   45.3060    9.5910 C.ar  288  TYR288     -0.0009
    112  CD2       54.3210   42.9740   10.1350 C.ar  288  TYR288     -0.0009
    113  CE1       54.5440   45.6210   10.9380 C.ar  288  TYR288      0.0417
    114  CE2       54.5620   43.2790   11.4730 C.ar  288  TYR288      0.0417
    115  CZ        54.6720   44.6000   11.8680 C.ar  288  TYR288      0.1957
    116  OH        54.8930   44.8840   13.1950 O.3   288  TYR288     -0.2866
@<TRIPOS>BOND
     1    97    96    2
     2    96    95    1
     3    95    94    1
     4    95    98    1
     5    98    99    1
     6    86    85    1
     7    86    87    1
     8    86    89    1
     9   100    99   ar
    10   100   102   ar
    11    87    88    2
    12    90    89    1
    13    90    91    1
    14    99   101   ar
    15    92    91    2
    16   102   104   ar
    17    91    93   am
    18   101   103   ar
    19   104   103   ar
    20    72    73    1
    21    72    71    1
    22    73    67    1
    23    71    68    1
    24    67    68    1
    25    67    58   am
    26    68    69    1
    27   105   106    1
    28    57    58    1
    29    57    56    1
    30    57    60    1
    31    75    76    1
    32    75    78    1
    33    75    74    1
    34    58    59    2
    35    76    77    2
    36    78    79    1
    37    69    74   am
    38    69    70    2
    39    60    61    1
    40   107   108    2
    41   107   106    1
    42   106   109    1
    43    81    80    1
    44    81    82    2
    45    79    80    1
    46    84    82    1
    47   109   110    1
    48    61    63   ar
    49    61    62   ar
    50    82    83    1
    51    63    65   ar
    52    62    64   ar
    53   110   111   ar
    54   110   112   ar
    55    53    52    1
    56    53    54    1
    57   111   113   ar
    58    65    66   ar
    59    64    66   ar
    60    54    55    2
    61   112   114   ar
    62    37    36    1
    63    35    36   ar
    64    35    33   ar
    65   113   115   ar
    66    36    34   ar
    67    33    31   ar
    68   114   115   ar
    69    34    32   ar
    70   115   116    1
    71    31    32   ar
    72    31    30    1
    73    30    27    1
    74    42    39    1
    75    17    16    1
    76    43    44    1
    77    43    40   am
    78    29    28    2
    79    27    26    1
    80    27    28    1
    81    39    40    1
    82    39    38    1
    83    44    45    1
    84    44    47    1
    85    25    23    1
    86    48    47    1
    87    48    49    1
    88    40    41    2
    89    23    22    1
    90    16    13    1
    91    45    46    2
    92    51    49   ar
    93    49    50   ar
    94    15    14    2
    95    22    24    1
    96    22    19    1
    97    14    13    1
    98    14    18   am
    99    13    12    1
   100    19    18    1
   101    19    20    1
   102    11     9   ar
   103    11    10   ar
   104    21    20    2
   105     9     7   ar
   106    10     8   ar
   107     7     6   ar
   108     8     6   ar
   109     6     5    1
   110     5     2    1
   111     2     3    1
   112     2     1    1
   113     3     4    2
