@<TRIPOS>MOLECULE
tmp/2inxA00.pdb
 134 126 0 0 0
SMALL
GASTEIGER

@<TRIPOS>ATOM
      1  N          2.1520   61.8070   41.4010 N.3    15  TYR15      -0.1241
      2  CA         2.6700   61.9590   40.0610 C.3    15  TYR15       0.1605
      3  C          1.5270   61.8680   39.0220 C.2    15  TYR15       0.2264
      4  O          1.4200   62.7120   38.1590 O.2    15  TYR15      -0.2867
      5  CB         3.7580   60.9160   39.8080 C.3    15  TYR15       0.0534
      6  CG         4.1870   60.8710   38.3350 C.ar   15  TYR15      -0.0201
      7  CD1        5.2300   61.6660   37.8340 C.ar   15  TYR15      -0.0009
      8  CD2        3.5670   59.9630   37.4680 C.ar   15  TYR15      -0.0009
      9  CE1        5.5630   61.6170   36.5070 C.ar   15  TYR15       0.0417
     10  CE2        3.9440   59.8650   36.1170 C.ar   15  TYR15       0.0417
     11  CZ         4.9790   60.6860   35.6490 C.ar   15  TYR15       0.1957
     12  OH         5.3200   60.6160   34.2680 O.3    15  TYR15      -0.2866
     13  N          0.2640   64.7120   36.2610 N.3    19  VAL19      -0.1245
     14  CA         0.0740   64.4530   34.8360 C.3    19  VAL19       0.1561
     15  C         -1.2960   64.7930   34.3620 C.2    19  VAL19       0.2260
     16  O         -1.4400   65.4230   33.3240 O.2    19  VAL19      -0.2867
     17  CB         0.5070   62.9900   34.4880 C.3    19  VAL19       0.0252
     18  CG1        0.2330   62.6740   33.0050 C.3    19  VAL19       0.0019
     19  CG2        2.0180   62.8180   34.7810 C.3    19  VAL19       0.0019
     20  N         11.2610   56.4150   28.2900 N.3    39  ASN39      -0.1240
     21  CA         9.8200   56.4690   27.9590 C.3    39  ASN39       0.1653
     22  C          9.6570   56.6000   26.4320 C.2    39  ASN39       0.2266
     23  O          9.9210   57.7090   25.8780 O.2    39  ASN39      -0.2867
     24  CB         9.1820   57.6790   28.6950 C.3    39  ASN39       0.1155
     25  CG         7.7430   57.7400   28.4900 C.2    39  ASN39       0.2627
     26  OD1        7.2160   57.1000   27.5780 O.2    39  ASN39      -0.2716
     27  ND2        7.0510   58.4480   29.3840 N.am   39  ASN39      -0.0877
     28  N         10.4650   67.0310   27.6330 N.3    55  PHE55      -0.1227
     29  CA         9.6530   65.8570   27.3690 C.3    55  PHE55       0.1736
     30  C          8.1980   66.0170   27.8060 C.2    55  PHE55       0.2595
     31  O          7.3030   65.7490   27.0070 O.2    55  PHE55      -0.2718
     32  CB        10.3430   64.6290   27.9970 C.3    55  PHE55       0.0547
     33  CG         9.5490   63.4060   27.9600 C.ar   55  PHE55      -0.0202
     34  CD1        9.5860   62.5850   26.8530 C.ar   55  PHE55      -0.0042
     35  CD2        8.7240   63.0960   29.0110 C.ar   55  PHE55      -0.0042
     36  CE1        8.8030   61.4140   26.8250 C.ar   55  PHE55      -0.0003
     37  CE2        7.9140   61.9480   28.9900 C.ar   55  PHE55      -0.0003
     38  CZ         7.9550   61.1280   27.9060 C.ar   55  PHE55      -0.0000
     39  N          7.9560   66.4480   29.0630 N.am   56  TYR56      -0.1976
     40  CA         6.5630   66.5980   29.5460 C.3    56  TYR56       0.1639
     41  C          5.8560   67.7030   28.8310 C.2    56  TYR56       0.2290
     42  O          4.6210   67.6060   28.5560 O.2    56  TYR56      -0.2864
     43  CB         6.5560   66.8160   31.0810 C.3    56  TYR56       0.0560
     44  CG         6.7650   65.4860   31.7730 C.ar   56  TYR56      -0.0198
     45  CD1        5.7400   64.5390   31.8840 C.ar   56  TYR56      -0.0009
     46  CD2        7.9880   65.1240   32.2500 C.ar   56  TYR56      -0.0009
     47  CE1        5.9570   63.3310   32.5030 C.ar   56  TYR56       0.0417
     48  CE2        8.1850   63.8820   32.8810 C.ar   56  TYR56       0.0417
     49  CZ         7.1870   62.9950   32.9840 C.ar   56  TYR56       0.1957
     50  OH         7.3610   61.7530   33.5890 O.3    56  TYR56      -0.2866
     51  N          2.5960   66.8200   26.9890 N.3    60  LEU60      -0.1245
     52  CA         1.3540   67.2470   27.6090 C.3    60  LEU60       0.1561
     53  C          0.7550   68.4800   27.0090 C.2    60  LEU60       0.2260
     54  O         -0.4430   68.4620   26.7250 O.2    60  LEU60      -0.2867
     55  CB         1.4680   67.3700   29.1430 C.3    60  LEU60       0.0270
     56  CG         1.8510   66.0470   29.8580 C.3    60  LEU60       0.0019
     57  CD1        2.0370   66.3110   31.3420 C.3    60  LEU60       0.0001
     58  CD2        0.8350   64.9310   29.6440 C.3    60  LEU60       0.0001
     59  N         -1.4810   52.6650   34.6040 N.3    82  PHE82      -0.1241
     60  CA        -2.3710   53.8060   34.3740 C.3    82  PHE82       0.1605
     61  C         -2.7130   53.9350   32.8980 C.2    82  PHE82       0.2264
     62  O         -2.1920   53.2020   32.0620 O.2    82  PHE82      -0.2867
     63  CB        -1.7600   55.1100   34.9570 C.3    82  PHE82       0.0534
     64  CG        -0.4680   55.5330   34.3120 C.ar   82  PHE82      -0.0203
     65  CD1        0.6990   54.8630   34.6540 C.ar   82  PHE82      -0.0042
     66  CD2       -0.3990   56.5950   33.3850 C.ar   82  PHE82      -0.0042
     67  CE1        1.8810   55.2590   34.1250 C.ar   82  PHE82      -0.0003
     68  CE2        0.8220   56.9670   32.7940 C.ar   82  PHE82      -0.0003
     69  CZ         1.9530   56.3100   33.1790 C.ar   82  PHE82      -0.0000
     70  N         -3.5540   57.0020   29.8760 N.3    84  VAL84      -0.1245
     71  CA        -3.5040   58.4090   29.4960 C.3    84  VAL84       0.1561
     72  C         -4.3610   58.5560   28.2620 C.2    84  VAL84       0.2260
     73  O         -4.1650   57.8260   27.2660 O.2    84  VAL84      -0.2867
     74  CB        -2.0560   58.7620   29.0320 C.3    84  VAL84       0.0252
     75  CG1       -1.9530   60.2650   28.6980 C.3    84  VAL84       0.0019
     76  CG2       -1.0550   58.3770   30.1030 C.3    84  VAL84       0.0019
     77  N         -5.8010   61.1640   25.2770 N.3    86  MET86      -0.1245
     78  CA        -5.3130   62.3320   24.5570 C.3    86  MET86       0.1570
     79  C         -5.9640   62.4660   23.1990 C.2    86  MET86       0.2261
     80  O         -6.8110   61.6620   22.8160 O.2    86  MET86      -0.2867
     81  CB        -3.8000   62.2540   24.3790 C.3    86  MET86       0.0387
     82  CG        -3.3630   61.1890   23.3890 C.3    86  MET86       0.0595
     83  SD        -2.6070   59.8210   24.2540 S.3    86  MET86      -0.1393
     84  CE        -0.9460   60.5110   24.4280 C.3    86  MET86       0.0692
     85  N         -3.6600   55.4050   25.8770 N.3    95  LEU95      -0.1245
     86  CA        -2.4290   54.6100   26.0110 C.3    95  LEU95       0.1561
     87  C         -2.4000   54.0170   27.4100 C.2    95  LEU95       0.2260
     88  O         -2.5580   54.7210   28.3920 O.2    95  LEU95      -0.2867
     89  CB        -1.2260   55.5200   25.7750 C.3    95  LEU95       0.0270
     90  CG         0.1470   54.9000   25.9640 C.3    95  LEU95       0.0019
     91  CD1        0.3910   53.8700   24.8250 C.3    95  LEU95       0.0001
     92  CD2        1.1790   55.9980   25.9950 C.3    95  LEU95       0.0001
     93  N         -0.1600   52.1960   30.2550 N.3    97  VAL97      -0.1245
     94  CA         1.2890   52.3130   30.5720 C.3    97  VAL97       0.1561
     95  C          1.4790   51.7080   31.9560 C.2    97  VAL97       0.2260
     96  O          0.5240   51.7540   32.7840 O.2    97  VAL97      -0.2867
     97  CB         1.6770   53.8200   30.6690 C.3    97  VAL97       0.0252
     98  CG1        3.1410   53.9630   30.8470 C.3    97  VAL97       0.0019
     99  CG2        1.3020   54.5530   29.3460 C.3    97  VAL97       0.0019
    100  N          4.3680   52.5540   34.7760 N.3    99  ASP99      -0.1239
    101  CA         5.6580   53.1780   35.1410 C.3    99  ASP99       0.1674
    102  C          6.2870   52.4500   36.2970 C.2    99  ASP99       0.2266
    103  O          5.6370   52.1320   37.3000 O.2    99  ASP99      -0.2867
    104  CB         5.4140   54.6190   35.5920 C.3    99  ASP99       0.1410
    105  CG         5.2010   55.5960   34.4210 C.2    99  ASP99       0.3668
    106  OD1        5.2980   55.1820   33.2540 O.co2  99  ASP99      -0.2456
    107  OD2        4.9870   56.8010   34.7230 O.co2  99  ASP99      -0.2456
    108  N         12.8990   56.6020   36.1340 N.3   112  MET112     -0.1245
    109  CA        11.5210   56.1950   35.7600 C.3   112  MET112      0.1570
    110  C         11.6650   55.4150   34.4700 C.2   112  MET112      0.2261
    111  O         12.4090   55.8500   33.5250 O.2   112  MET112     -0.2867
    112  CB        10.6200   57.4040   35.5460 C.3   112  MET112      0.0387
    113  CG         9.0350   57.0050   35.3040 C.3   112  MET112      0.0595
    114  SD         8.9090   56.7430   33.5570 S.3   112  MET112     -0.1393
    115  CE         8.1680   58.3530   33.0860 C.3   112  MET112      0.0692
    116  N          9.0560   53.7680   31.6320 N.3   114  ALA114     -0.1245
    117  CA         7.6160   53.7450   31.2490 C.3   114  ALA114      0.1562
    118  C          7.4580   52.5770   30.2300 C.2   114  ALA114      0.2260
    119  O          7.9200   52.6600   29.1000 O.2   114  ALA114     -0.2867
    120  CB         7.2070   55.0320   30.6290 C.3   114  ALA114      0.0290
    121  N          5.4450   50.5600   27.6420 N.3   116  TRP116     -0.1241
    122  CA         4.2660   50.6140   26.7130 C.3   116  TRP116      0.1605
    123  C          4.8500   50.5250   25.3230 C.2   116  TRP116      0.2264
    124  O          6.0570   50.7650   25.1610 O.2   116  TRP116     -0.2867
    125  CB         3.4750   51.9120   26.8490 C.3   116  TRP116      0.0550
    126  CG         4.2350   53.1350   26.5190 C.ar  116  TRP116      0.0003
    127  CD1        4.9700   53.9070   27.3790 C.ar  116  TRP116      0.0946
    128  CD2        4.3320   53.7800   25.2320 C.ar  116  TRP116      0.0152
    129  NE1        5.4750   55.0040   26.7120 N.ar  116  TRP116     -0.2442
    130  CE2        5.1380   54.9290   25.3980 C.ar  116  TRP116      0.0810
    131  CE3        3.8610   53.4720   23.9550 C.ar  116  TRP116      0.0012
    132  CZ2        5.4650   55.7970   24.3450 C.ar  116  TRP116      0.0191
    133  CZ3        4.1840   54.3480   22.9020 C.ar  116  TRP116      0.0001
    134  CH2        4.9820   55.4900   23.1180 C.ar  116  TRP116      0.0015
@<TRIPOS>BOND
     1    80    79    2
     2   133   134   ar
     3   133   131   ar
     4   134   132   ar
     5    79    78    1
     6    82    83    1
     7    82    81    1
     8   131   128   ar
     9    83    84    1
    10   132   130   ar
    11    81    78    1
    12    78    77    1
    13    91    90    1
    14   124   123    2
    15   128   130   ar
    16   128   126   ar
    17   123   122    1
    18   130   129   ar
    19    89    90    1
    20    89    86    1
    21    85    86    1
    22    23    22    2
    23    90    92    1
    24    86    87    1
    25    22    21    1
    26   126   125    1
    27   126   127   ar
    28   129   127   ar
    29   122   125    1
    30   122   121    1
    31    54    53    2
    32    36    34   ar
    33    36    38   ar
    34    34    33   ar
    35    51    52    1
    36    31    30    2
    37    53    52    1
    38    73    72    2
    39    29    28    1
    40    29    30    1
    41    29    32    1
    42    87    88    2
    43    26    25    2
    44    52    55    1
    45    30    39   am
    46    38    37   ar
    47    21    20    1
    48    21    24    1
    49    33    32    1
    50    33    35   ar
    51    72    71    1
    52    25    24    1
    53    25    27   am
    54    42    41    2
    55    75    74    1
    56    41    40    1
    57    37    35   ar
    58    74    71    1
    59    74    76    1
    60    39    40    1
    61   119   118    2
    62    55    56    1
    63    99    97    1
    64    71    70    1
    65    40    43    1
    66    58    56    1
    67    56    57    1
    68   118   117    1
    69    93    94    1
    70    94    97    1
    71    94    95    1
    72   120   117    1
    73    97    98    1
    74    43    44    1
    75   117   116    1
    76    44    45   ar
    77    44    46   ar
    78    45    47   ar
    79    95    96    2
    80    62    61    2
    81    46    48   ar
    82    47    49   ar
    83    68    69   ar
    84    68    66   ar
    85    48    49   ar
    86    61    60    1
    87    49    50    1
    88    18    17    1
    89   115   114    1
    90    69    67   ar
    91   106   105   ar
    92    16    15    2
    93    66    64   ar
    94   111   110    2
    95   114   113    1
    96    67    65   ar
    97    12    11    1
    98    64    65   ar
    99    64    63    1
   100    15    14    1
   101    60    59    1
   102    60    63    1
   103   105   107   ar
   104   105   104    1
   105   110   109    1
   106    17    19    1
   107    17    14    1
   108   100   101    1
   109    14    13    1
   110   101   104    1
   111   101   102    1
   112   113   112    1
   113   112   109    1
   114    11    10   ar
   115    11     9   ar
   116   109   108    1
   117    10     8   ar
   118   102   103    2
   119     9     7   ar
   120     8     6   ar
   121     7     6   ar
   122     4     3    2
   123     6     5    1
   124     3     2    1
   125     5     2    1
   126     2     1    1
