@<TRIPOS>MOLECULE
tmp/2io6A00.pdb
 169 159 0 0 0
SMALL
GASTEIGER

@<TRIPOS>ATOM
      1  N          0.9840   58.8890   20.8610 N.3    15  ILE15      -0.1231
      2  CA         1.8360   57.7340   20.6060 C.3    15  ILE15       0.1692
      3  C          1.0920   56.4370   20.8660 C.2    15  ILE15       0.2592
      4  O          1.5980   55.3700   20.5720 O.2    15  ILE15      -0.2718
      5  CB         3.1590   57.7950   21.4320 C.3    15  ILE15       0.0266
      6  CG1        2.8730   57.8730   22.9690 C.3    15  ILE15       0.0019
      7  CG2        4.0520   58.9360   20.9250 C.3    15  ILE15       0.0020
      8  CD1        4.1220   57.9670   23.8920 C.3    15  ILE15       0.0001
      9  N         -0.1000   56.5270   21.4420 N.am   16  GLY16      -0.1957
     10  CA        -0.8990   55.3440   21.7380 C.3    16  GLY16       0.1869
     11  C         -2.3380   55.7880   21.9500 C.2    16  GLY16       0.2309
     12  O         -2.5590   56.9390   22.2960 O.2    16  GLY16      -0.2863
     13  N         -2.2670   58.1010   24.9190 N.3    19  VAL19      -0.1245
     14  CA        -0.9660   58.3890   25.5050 C.3    19  VAL19       0.1561
     15  C         -0.3050   59.4140   24.5930 C.2    19  VAL19       0.2260
     16  O         -0.4020   59.2520   23.4290 O.2    19  VAL19      -0.2867
     17  CB        -0.0730   57.1130   25.5810 C.3    19  VAL19       0.0252
     18  CG1        1.2730   57.4280   26.3140 C.3    19  VAL19       0.0019
     19  CG2       -0.8120   55.9680   26.2960 C.3    19  VAL19       0.0019
     20  N          5.9730   60.3690   28.9680 N.3    32  ALA32      -0.1231
     21  CA         4.7740   59.8570   28.3410 C.3    32  ALA32       0.1694
     22  C          3.6320   60.0610   29.3240 C.2    32  ALA32       0.2592
     23  O          3.7500   59.6840   30.5130 O.2    32  ALA32      -0.2718
     24  CB         4.9250   58.4230   28.0090 C.3    32  ALA32       0.0304
     25  N          2.5250   60.6180   28.8590 N.am   33  ILE33      -0.1966
     26  CA         1.3820   60.9140   29.7260 C.3    33  ILE33       0.1727
     27  C          0.1560   60.2200   29.2010 C.2    33  ILE33       0.2616
     28  O         -0.2230   60.4570   28.1110 O.2    33  ILE33      -0.2715
     29  CB         1.1390   62.4220   29.7840 C.3    33  ILE33       0.0290
     30  CG1        2.3700   63.1360   30.4050 C.3    33  ILE33       0.0022
     31  CG2       -0.1390   62.7490   30.5150 C.3    33  ILE33       0.0023
     32  CD1        2.2440   64.6170   30.5740 C.3    33  ILE33       0.0001
     33  N         -0.4680   59.3530   29.9800 N.am   34  LYS34      -0.1977
     34  CA        -1.6810   58.7330   29.5860 C.3    34  LYS34       0.1596
     35  C         -2.8580   59.4940   30.1840 C.2    34  LYS34       0.2287
     36  O         -2.8770   59.8110   31.3550 O.2    34  LYS34      -0.2864
     37  CB        -1.6620   57.2820   30.0220 C.3    34  LYS34       0.0298
     38  CG        -2.7220   56.4330   29.4280 C.3    34  LYS34       0.0038
     39  CD        -3.6570   55.9540   30.5130 C.3    34  LYS34       0.0206
     40  CE        -3.1300   54.6960   31.2310 C.3    34  LYS34       0.1093
     41  NZ        -3.9980   54.3340   32.4140 N.3    34  LYS34      -0.1314
     42  N         -3.2370   50.6790   39.4480 N.3    49  GLU49      -0.1245
     43  CA        -2.1720   51.0670   38.4950 C.3    49  GLU49       0.1567
     44  C         -1.2880   52.1410   39.1730 C.2    49  GLU49       0.2260
     45  O         -0.0890   52.0000   39.1870 O.2    49  GLU49      -0.2867
     46  CB        -2.7480   51.5700   37.1340 C.3    49  GLU49       0.0388
     47  CG        -1.7050   52.2200   36.1570 C.3    49  GLU49       0.1160
     48  CD        -2.2040   52.3510   34.6740 C.2    49  GLU49       0.3649
     49  OE1       -3.4280   52.4680   34.4600 O.co2  49  GLU49      -0.2457
     50  OE2       -1.3830   52.3060   33.7100 O.co2  49  GLU49      -0.2457
     51  N          2.6230   51.7050   40.4950 N.3    53  HIS53      -0.1241
     52  CA         3.7430   52.5230   40.0170 C.3    53  HIS53       0.1621
     53  C          4.4350   53.2150   41.1360 C.2    53  HIS53       0.2264
     54  O          5.6440   53.3300   41.1200 O.2    53  HIS53      -0.2867
     55  CB         3.2800   53.6100   39.0310 C.3    53  HIS53       0.0745
     56  CG         3.4120   53.2330   37.5990 C.ar   53  HIS53       0.0817
     57  ND1        4.6330   53.0130   36.9870 N.ar   53  HIS53      -0.2268
     58  CD2        2.4670   53.0610   36.6390 C.ar   53  HIS53       0.1154
     59  CE1        4.4320   52.7130   35.7160 C.ar   53  HIS53       0.1986
     60  NE2        3.1300   52.7330   35.4770 N.ar   53  HIS53      -0.2212
     61  N          9.3280   50.7050   33.9790 N.3    63  VAL63      -0.1245
     62  CA         9.1890   52.0800   33.5180 C.3    63  VAL63       0.1561
     63  C          8.9230   53.0030   34.7470 C.2    63  VAL63       0.2260
     64  O          8.0650   52.6390   35.5490 O.2    63  VAL63      -0.2867
     65  CB         7.9650   52.1720   32.5900 C.3    63  VAL63       0.0252
     66  CG1        7.5470   53.6070   32.4070 C.3    63  VAL63       0.0019
     67  CG2        8.3030   51.5140   31.2050 C.3    63  VAL63       0.0019
     68  N         -1.5860   59.8990   34.1480 N.3    77  ILE77      -0.1245
     69  CA        -0.3120   59.4370   34.7290 C.3    77  ILE77       0.1561
     70  C          0.9070   59.8060   33.8570 C.2    77  ILE77       0.2260
     71  O          0.8780   59.5780   32.6750 O.2    77  ILE77      -0.2867
     72  CB        -0.3800   57.9570   35.1310 C.3    77  ILE77       0.0252
     73  CG1        0.9810   57.4440   35.5980 C.3    77  ILE77       0.0019
     74  CG2       -0.8640   57.0450   34.0000 C.3    77  ILE77       0.0019
     75  CD1        0.8320   56.2120   36.3840 C.3    77  ILE77       0.0001
     76  N          4.7540   59.1420   33.1220 N.3    79  ASN79      -0.1225
     77  CA         5.8340   58.1730   33.2020 C.3    79  ASN79       0.1785
     78  C          7.0620   58.6080   32.3970 C.2    79  ASN79       0.2597
     79  O          6.9920   59.4960   31.5330 O.2    79  ASN79      -0.2718
     80  CB         5.3580   56.7380   32.6960 C.3    79  ASN79       0.1169
     81  CG         4.4310   56.0490   33.7350 C.2    79  ASN79       0.2627
     82  OD1        4.3050   56.5620   34.8290 O.2    79  ASN79      -0.2716
     83  ND2        3.7600   54.9540   33.3820 N.am   79  ASN79      -0.0877
     84  N          8.1930   58.0410   32.7610 N.am   80  GLU80      -0.1965
     85  CA         9.3750   57.9300   31.8470 C.3    80  GLU80       0.1733
     86  C          8.9220   57.7140   30.4300 C.2    80  GLU80       0.2616
     87  O          8.1260   56.7820   30.2280 O.2    80  GLU80      -0.2715
     88  CB        10.1250   56.6270   32.1750 C.3    80  GLU80       0.0429
     89  CG        11.5680   56.6600   31.8210 C.3    80  GLU80       0.1163
     90  CD        12.3130   55.3470   32.2490 C.2    80  GLU80       0.3649
     91  OE1       11.8290   54.5560   33.1110 O.co2  80  GLU80      -0.2457
     92  OE2       13.4100   55.1110   31.6810 O.co2  80  GLU80      -0.2457
     93  N          9.4440   58.5330   29.4860 N.am   81  TYR81      -0.1960
     94  CA         9.3650   58.2810   28.0180 C.3    81  TYR81       0.1771
     95  C         10.4890   57.3800   27.4960 C.2    81  TYR81       0.2620
     96  O         11.6770   57.6040   27.7650 O.2    81  TYR81      -0.2715
     97  CB         9.3600   59.6110   27.2260 C.3    81  TYR81       0.0574
     98  CG         9.3080   59.4360   25.7250 C.ar   81  TYR81      -0.0198
     99  CD1        8.1860   58.9410   25.1060 C.ar   81  TYR81      -0.0009
    100  CD2       10.4300   59.7560   24.9260 C.ar   81  TYR81      -0.0009
    101  CE1        8.1470   58.7610   23.7360 C.ar   81  TYR81       0.0417
    102  CE2       10.4190   59.5580   23.5390 C.ar   81  TYR81       0.0417
    103  CZ         9.2790   59.0880   22.9650 C.ar   81  TYR81       0.1957
    104  OH         9.2760   58.8850   21.6220 O.3    81  TYR81      -0.2866
    105  N         10.1030   56.3530   26.7540 N.am   82  CYS82      -0.1954
    106  CA        11.0350   55.3500   26.2580 C.3    82  CYS82       0.1843
    107  C         11.1100   55.5440   24.7640 C.2    82  CYS82       0.2625
    108  O         10.1610   55.2320   24.0210 O.2    82  CYS82      -0.2714
    109  CB        10.5220   53.9460   26.5750 C.3    82  CYS82       0.0997
    110  SG        10.5870   53.5680   28.4000 S.3    82  CYS82      -0.0797
    111  N         12.2220   56.1100   24.3260 N.am   83  ASN83      -0.1972
    112  CA        12.2770   56.5510   22.9350 C.3    83  ASN83       0.1688
    113  C         12.4400   55.4560   21.8560 C.2    83  ASN83       0.2292
    114  O         12.3600   55.7670   20.6690 O.2    83  ASN83      -0.2864
    115  CB        13.2520   57.7150   22.7590 C.3    83  ASN83       0.1181
    116  CG        14.6740   57.2870   22.6870 C.2    83  ASN83       0.2629
    117  OD1       15.0570   56.2020   23.1810 O.2    83  ASN83      -0.2716
    118  ND2       15.5220   58.1670   22.0420 N.am   83  ASN83      -0.0877
    119  N         10.3260   52.9890   21.5440 N.3    85  GLY85      -0.1210
    120  CA         8.9950   52.4170   21.2170 C.3    85  GLY85       0.1956
    121  C          8.7820   51.1010   21.9680 C.2    85  GLY85       0.2612
    122  O          9.6020   50.7300   22.8220 O.2    85  GLY85      -0.2717
    123  N          7.7340   50.3650   21.6380 N.am   86  SER86      -0.1952
    124  CA         7.5190   49.0700   22.2950 C.3    86  SER86       0.1924
    125  C          8.2220   47.9150   21.5520 C.2    86  SER86       0.2314
    126  O          8.5870   48.0400   20.3870 O.2    86  SER86      -0.2863
    127  CB         6.0640   48.7870   22.3300 C.3    86  SER86       0.2116
    128  OG         5.6560   48.5460   20.9780 O.3    86  SER86      -0.2180
    129  N          6.3310   46.8620   18.3650 N.3    89  ASP89      -0.1239
    130  CA         6.7200   47.5510   17.1200 C.3    89  ASP89       0.1674
    131  C          8.0470   46.9990   16.5500 C.2    89  ASP89       0.2266
    132  O          8.1170   46.7510   15.3730 O.2    89  ASP89      -0.2867
    133  CB         6.7920   49.0560   17.3070 C.3    89  ASP89       0.1410
    134  CG         5.3770   49.7090   17.5430 C.2    89  ASP89       0.3668
    135  OD1        5.2780   50.7770   18.2580 O.co2  89  ASP89      -0.2456
    136  OD2        4.3510   49.1390   17.0330 O.co2  89  ASP89      -0.2456
    137  N          3.7110   44.3600   23.5940 N.3   133  SER133     -0.1202
    138  CA         3.2440   45.7210   23.5650 C.3   133  SER133      0.2020
    139  C          3.3390   46.4320   24.9280 C.2   133  SER133      0.2618
    140  O          3.1040   47.6440   24.9840 O.2   133  SER133     -0.2717
    141  CB         1.8320   45.8330   23.0170 C.3   133  SER133      0.2103
    142  OG         0.9240   45.2850   23.9220 O.3   133  SER133     -0.2182
    143  N          3.6670   45.6830   25.9940 N.am  134  ASN134     -0.1974
    144  CA         3.8940   46.2230   27.3710 C.3   134  ASN134      0.1688
    145  C          5.3700   46.1850   27.7870 C.2   134  ASN134      0.2292
    146  O          5.6860   46.3110   28.9600 O.2   134  ASN134     -0.2864
    147  CB         3.0540   45.4580   28.4390 C.3   134  ASN134      0.1181
    148  CG         1.5440   45.6380   28.2490 C.2   134  ASN134      0.2629
    149  OD1        1.0840   46.5530   27.5790 O.2   134  ASN134     -0.2716
    150  ND2        0.7910   44.7880   28.8540 N.am  134  ASN134     -0.0877
    151  N          8.9850   48.1530   26.7640 N.3   136  PHE136     -0.1241
    152  CA         9.3590   49.3810   26.1350 C.3   136  PHE136      0.1605
    153  C         10.8510   49.3860   26.0110 C.2   136  PHE136      0.2264
    154  O         11.5870   48.7190   26.7870 O.2   136  PHE136     -0.2867
    155  CB         8.8180   50.6190   26.8870 C.3   136  PHE136      0.0534
    156  CG         7.3420   50.6690   26.9060 C.ar  136  PHE136     -0.0203
    157  CD1        6.6330   51.1900   25.8280 C.ar  136  PHE136     -0.0042
    158  CD2        6.6220   50.0400   27.9220 C.ar  136  PHE136     -0.0042
    159  CE1        5.2070   51.1520   25.8360 C.ar  136  PHE136     -0.0003
    160  CE2        5.2030   50.0160   27.9240 C.ar  136  PHE136     -0.0003
    161  CZ         4.5100   50.5430   26.8910 C.ar  136  PHE136     -0.0000
    162  N          2.9690   49.4650   31.5850 N.3   146  ASP146     -0.1239
    163  CA         1.5630   49.1330   31.6480 C.3   146  ASP146      0.1674
    164  C          1.1870   48.2590   32.8610 C.2   146  ASP146      0.2266
    165  O          0.9920   47.0400   32.7680 O.2   146  ASP146     -0.2867
    166  CB         1.0620   48.5250   30.3400 C.3   146  ASP146      0.1410
    167  CG        -0.4790   48.6790   30.1920 C.2   146  ASP146      0.3668
    168  OD1       -0.9690   48.6170   29.0260 O.co2 146  ASP146     -0.2456
    169  OD2       -1.1610   48.8800   31.2580 O.co2 146  ASP146     -0.2456
@<TRIPOS>BOND
     1   132   131    2
     2   131   130    1
     3   136   134   ar
     4   130   133    1
     5   130   129    1
     6   133   134    1
     7   134   135   ar
     8   126   125    2
     9     4     3    2
    10     2     1    1
    11     2     3    1
    12     2     5    1
    13   114   113    2
    14     3     9   am
    15     7     5    1
    16   128   127    1
    17   120   119    1
    18   120   121    1
    19     5     6    1
    20     9    10    1
    21   125   124    1
    22   104   103    1
    23   123   121   am
    24   123   124    1
    25    10    11    1
    26   113   112    1
    27    11    12    2
    28   121   122    2
    29   118   116   am
    30   124   127    1
    31   116   115    1
    32   116   117    2
    33   115   112    1
    34   112   111    1
    35   103   102   ar
    36   103   101   ar
    37     6     8    1
    38   141   138    1
    39   141   142    1
    40    16    15    2
    41   102   100   ar
    42   138   137    1
    43   138   139    1
    44   101    99   ar
    45   108   107    2
    46   111   107   am
    47    15    14    1
    48   107   106    1
    49    13    14    1
    50   100    98   ar
    51   139   140    2
    52   139   143   am
    53    99    98   ar
    54    14    17    1
    55    17    19    1
    56    17    18    1
    57    98    97    1
    58   157   159   ar
    59   157   156   ar
    60   159   161   ar
    61   143   144    1
    62   153   152    1
    63   153   154    2
    64   152   151    1
    65   152   155    1
    66   106   109    1
    67   106   105    1
    68   109   110    1
    69   105    95   am
    70   155   156    1
    71   161   160   ar
    72   156   158   ar
    73    97    94    1
    74   144   145    1
    75   144   147    1
    76    95    96    2
    77    95    94    1
    78   149   148    2
    79   145   146    2
    80   158   160   ar
    81    24    21    1
    82    94    93    1
    83    28    27    2
    84   148   147    1
    85   148   150   am
    86    21    20    1
    87    21    22    1
    88    25    22   am
    89    25    26    1
    90   168   167   ar
    91    27    26    1
    92    27    33   am
    93    22    23    2
    94    38    37    1
    95    38    39    1
    96    93    86   am
    97    34    33    1
    98    34    37    1
    99    34    35    1
   100    26    29    1
   101    29    30    1
   102    29    31    1
   103    35    36    2
   104   167   166    1
   105   167   169   ar
   106    87    86    2
   107   166   163    1
   108    30    32    1
   109    86    85    1
   110    39    40    1
   111    67    65    1
   112    40    41    1
   113    79    78    2
   114   162   163    1
   115   163   164    1
   116    92    90   ar
   117    89    88    1
   118    89    90    1
   119    85    88    1
   120    85    84    1
   121    90    91   ar
   122    78    84   am
   123    78    77    1
   124    66    65    1
   125    65    62    1
   126    71    70    2
   127    80    77    1
   128    80    81    1
   129   165   164    2
   130    76    77    1
   131    83    81   am
   132    62    61    1
   133    62    63    1
   134    50    48   ar
   135    81    82    2
   136    70    69    1
   137    74    72    1
   138    68    69    1
   139    49    48   ar
   140    48    47    1
   141    69    72    1
   142    63    64    2
   143    72    73    1
   144    60    59   ar
   145    60    58   ar
   146    73    75    1
   147    59    57   ar
   148    47    46    1
   149    58    56   ar
   150    57    56   ar
   151    46    43    1
   152    56    55    1
   153    43    44    1
   154    43    42    1
   155    55    52    1
   156    44    45    2
   157    52    51    1
   158    52    53    1
   159    54    53    2
