@<TRIPOS>MOLECULE
tmp/2io7B00.pdb
 230 219 0 0 0
SMALL
GASTEIGER

@<TRIPOS>ATOM
      1  N         -5.0970  -13.4050   44.5050 N.3   291  ARG291     -0.1245
      2  CA        -5.0780  -13.1700   45.9330 C.3   291  ARG291      0.1563
      3  C         -3.9200  -12.2640   46.2760 C.2   291  ARG291      0.2260
      4  O         -2.8190  -12.4500   45.7780 O.2   291  ARG291     -0.2867
      5  CB        -4.9400  -14.4730   46.7220 C.3   291  ARG291      0.0307
      6  CG        -5.1910  -14.3040   48.2240 C.3   291  ARG291      0.0489
      7  CD        -5.0450  -15.6050   49.0330 C.3   291  ARG291      0.2205
      8  NE        -3.6500  -15.9750   49.2720 N.pl3 291  ARG291     -0.0865
      9  CZ        -2.9980  -16.9570   48.6490 C.cat 291  ARG291      0.5346
     10  NH1       -1.7280  -17.1840   48.9590 N.pl3 291  ARG291      0.1354
     11  NH2       -3.6050  -17.7160   47.7310 N.pl3 291  ARG291      0.1354
     12  N         -1.6960  -10.5430   49.4680 N.3   293  ASP293     -0.1239
     13  CA        -1.3060  -10.7290   50.8630 C.3   293  ASP293      0.1674
     14  C         -0.9270   -9.4050   51.5130 C.2   293  ASP293      0.2266
     15  O         -0.0830   -8.6610   51.0230 O.2   293  ASP293     -0.2867
     16  CB        -0.1800  -11.7760   50.9890 C.3   293  ASP293      0.1410
     17  CG        -0.6590  -13.2050   50.6100 C.2   293  ASP293      0.3668
     18  OD1       -1.8750  -13.5190   50.8040 O.co2 293  ASP293     -0.2456
     19  OD2        0.1870  -14.0060   50.1270 O.co2 293  ASP293     -0.2456
     20  N          2.5810   -7.7520   50.6960 N.3   304  TYR304     -0.1227
     21  CA         3.7480   -8.6220   50.6630 C.3   304  TYR304      0.1736
     22  C          3.8780   -9.1140   49.2480 C.2   304  TYR304      0.2595
     23  O          4.9330   -8.9690   48.6180 O.2   304  TYR304     -0.2718
     24  CB         3.5810   -9.8460   51.5500 C.3   304  TYR304      0.0548
     25  CG         3.5080   -9.5940   53.0280 C.ar  304  TYR304     -0.0200
     26  CD1        4.4690   -8.8110   53.6810 C.ar  304  TYR304     -0.0009
     27  CD2        2.5120  -10.1960   53.7960 C.ar  304  TYR304     -0.0009
     28  CE1        4.4390   -8.6380   55.0870 C.ar  304  TYR304      0.0417
     29  CE2        2.4730  -10.0380   55.1830 C.ar  304  TYR304      0.0417
     30  CZ         3.4390   -9.2590   55.8230 C.ar  304  TYR304      0.1957
     31  OH         3.4290   -9.1010   57.1860 O.3   304  TYR304     -0.2866
     32  N          2.7880   -9.6800   48.7410 N.am  305  GLU305     -0.1979
     33  CA         2.7760  -10.2430   47.3770 C.3   305  GLU305      0.1602
     34  C          1.3760  -10.2950   46.7230 C.2   305  GLU305      0.2287
     35  O          0.3590  -10.1790   47.4020 O.2   305  GLU305     -0.2864
     36  CB         3.3430  -11.6880   47.3970 C.3   305  GLU305      0.0415
     37  CG         2.4330  -12.6580   48.1870 C.3   305  GLU305      0.1163
     38  CD         2.5780  -14.1070   47.7820 C.2   305  GLU305      0.3649
     39  OE1        3.1140  -14.3530   46.6900 O.co2 305  GLU305     -0.2457
     40  OE2        2.1340  -14.9870   48.5550 O.co2 305  GLU305     -0.2457
     41  N         -0.4980  -12.9450   44.4070 N.3   307  ASN307     -0.1240
     42  CA        -0.5090  -14.2610   43.7990 C.3   307  ASN307      0.1653
     43  C         -1.5120  -14.1440   42.6470 C.2   307  ASN307      0.2266
     44  O         -2.6990  -14.4430   42.8140 O.2   307  ASN307     -0.2867
     45  CB        -0.9830  -15.3220   44.8100 C.3   307  ASN307      0.1155
     46  CG         0.0630  -15.6440   45.8730 C.2   307  ASN307      0.2627
     47  OD1        1.2020  -15.9230   45.5700 O.2   307  ASN307     -0.2716
     48  ND2       -0.3390  -15.6300   47.1180 N.am  307  ASN307     -0.0877
     49  N          8.0830  -12.1420   42.1740 N.3   467  LYS467     -0.1245
     50  CA         8.5820  -11.0930   43.0220 C.3   467  LYS467      0.1561
     51  C          9.5630  -10.1710   42.3540 C.2   467  LYS467      0.2260
     52  O          9.7690   -9.0630   42.8100 O.2   467  LYS467     -0.2867
     53  CB         9.1800  -11.6840   44.2790 C.3   467  LYS467      0.0271
     54  CG         8.1960  -11.7530   45.4310 C.3   467  LYS467      0.0035
     55  CD         7.6240  -13.1070   45.6110 C.3   467  LYS467      0.0206
     56  CE         6.9660  -13.2010   46.9900 C.3   467  LYS467      0.1093
     57  NZ         6.5140  -14.5970   47.2840 N.3   467  LYS467     -0.1314
     58  N          6.3570   -1.6830   50.0920 N.3   484  LEU484     -0.1245
     59  CA         7.4400   -1.9310   51.0330 C.3   484  LEU484      0.1561
     60  C          8.6520   -1.8100   50.1460 C.2   484  LEU484      0.2260
     61  O          8.6090   -2.2000   48.9850 O.2   484  LEU484     -0.2867
     62  CB         7.3740   -3.3530   51.6160 C.3   484  LEU484      0.0270
     63  CG         6.2690   -3.7920   52.5940 C.3   484  LEU484      0.0019
     64  CD1        6.5230   -5.2300   52.9750 C.3   484  LEU484      0.0001
     65  CD2        6.2260   -2.9410   53.8480 C.3   484  LEU484      0.0001
     66  N         12.9430   -9.2690   54.6150 N.3   500  ALA500     -0.1245
     67  CA        12.5060  -10.6150   54.3280 C.3   500  ALA500      0.1562
     68  C         13.2460  -11.0390   53.0620 C.2   500  ALA500      0.2260
     69  O         13.3060  -10.2940   52.0960 O.2   500  ALA500     -0.2867
     70  CB        11.0220  -10.6360   54.0980 C.3   500  ALA500      0.0290
     71  N         13.3040  -13.4290   49.9850 N.3   502  LYS502     -0.1245
     72  CA        12.2790  -14.2170   49.3390 C.3   502  LYS502      0.1561
     73  C         12.6010  -14.6410   47.9170 C.2   502  LYS502      0.2260
     74  O         13.0850  -13.8530   47.1120 O.2   502  LYS502     -0.2867
     75  CB        10.9800  -13.4290   49.3930 C.3   502  LYS502      0.0271
     76  CG        10.7840  -12.7650   50.7280 C.3   502  LYS502      0.0035
     77  CD         9.3260  -12.5860   51.0780 C.3   502  LYS502      0.0206
     78  CE         8.6450  -11.5760   50.2030 C.3   502  LYS502      0.1093
     79  NZ         7.3520  -11.2500   50.7530 N.3   502  LYS502     -0.1314
     80  N          8.7530  -18.3760   44.3510 N.3   506  GLY506     -0.1210
     81  CA         8.3350  -19.3400   45.3480 C.3   506  GLY506      0.1956
     82  C          6.9040  -19.1710   45.8190 C.2   506  GLY506      0.2612
     83  O          6.1920  -18.2650   45.3870 O.2   506  GLY506     -0.2717
     84  N          6.4910  -20.0440   46.7300 N.am  507  ARG507     -0.1965
     85  CA         5.1520  -20.0130   47.2680 C.3   507  ARG507      0.1729
     86  C          5.0270  -20.9580   48.4470 C.2   507  ARG507      0.2616
     87  O          5.9520  -21.6840   48.7600 O.2   507  ARG507     -0.2715
     88  CB         4.1610  -20.3790   46.1740 C.3   507  ARG507      0.0348
     89  CG         4.4600  -21.6850   45.4470 C.3   507  ARG507      0.0492
     90  CD         3.5880  -21.8340   44.2080 C.3   507  ARG507      0.2205
     91  NE         3.3320  -23.2370   43.8680 N.pl3 507  ARG507     -0.0865
     92  CZ         2.1760  -23.6900   43.3670 C.cat 507  ARG507      0.5346
     93  NH1        1.1680  -22.8350   43.1520 N.pl3 507  ARG507      0.1354
     94  NH2        2.0200  -24.9950   43.0880 N.pl3 507  ARG507      0.1354
     95  N          3.8730  -20.9370   49.0970 N.am  508  CYS508     -0.1954
     96  CA         3.6080  -21.7670   50.2650 C.3   508  CYS508      0.1843
     97  C          4.3480  -21.2580   51.5020 C.2   508  CYS508      0.2626
     98  O          4.1230  -21.7470   52.6100 O.2   508  CYS508     -0.2714
     99  CB         3.9790  -23.2220   49.9860 C.3   508  CYS508      0.0997
    100  SG         2.8600  -24.0870   48.8480 S.3   508  CYS508     -0.0797
    101  N          5.1950  -20.2500   51.3110 N.am  509  GLY509     -0.1940
    102  CA         5.9650  -19.7020   52.4160 C.3   509  GLY509      0.2014
    103  C          7.2960  -20.4270   52.5010 C.2   509  GLY509      0.2639
    104  O          7.8340  -20.6490   53.5830 O.2   509  GLY509     -0.2714
    105  N          7.8320  -20.7890   51.3400 N.am  510  SER510     -0.1949
    106  CA         9.0740  -21.5310   51.2640 C.3   510  SER510      0.1924
    107  C         10.3220  -20.6900   51.1200 C.2   510  SER510      0.2314
    108  O         10.3020  -19.6310   50.5050 O.2   510  SER510     -0.2863
    109  CB         8.9970  -22.5350   50.1170 C.3   510  SER510      0.2116
    110  OG         8.2970  -23.6890   50.5320 O.3   510  SER510     -0.2180
    111  N         11.8900  -18.6950   52.9480 N.3   512  ILE512     -0.1245
    112  CA        11.7580  -17.3200   53.4070 C.3   512  ILE512      0.1561
    113  C         12.6480  -17.1410   54.6300 C.2   512  ILE512      0.2260
    114  O         12.6380  -17.9650   55.5390 O.2   512  ILE512     -0.2867
    115  CB        10.2970  -17.0020   53.8340 C.3   512  ILE512      0.0252
    116  CG1        9.3180  -17.2030   52.6700 C.3   512  ILE512      0.0019
    117  CG2       10.2250  -15.5940   54.3640 C.3   512  ILE512      0.0019
    118  CD1        9.5640  -16.2690   51.5020 C.3   512  ILE512      0.0001
    119  N         13.8150  -14.2640   57.5940 N.3   514  LEU514     -0.1245
    120  CA        13.4940  -12.9720   58.2120 C.3   514  LEU514      0.1561
    121  C         14.6030  -12.4370   59.1260 C.2   514  LEU514      0.2260
    122  O         14.8010  -12.9230   60.2370 O.2   514  LEU514     -0.2867
    123  CB        12.1690  -13.0800   58.9920 C.3   514  LEU514      0.0270
    124  CG        10.8910  -13.3040   58.1690 C.3   514  LEU514      0.0019
    125  CD1        9.6600  -13.2690   59.0640 C.3   514  LEU514      0.0001
    126  CD2       10.7970  -12.2190   57.0990 C.3   514  LEU514      0.0001
    127  N         12.7190   -7.7350   50.8050 N.3   537  GLN537     -0.1231
    128  CA        11.6420   -6.7900   51.0390 C.3   537  GLN537      0.1698
    129  C         11.6910   -6.2930   52.4560 C.2   537  GLN537      0.2592
    130  O         11.8130   -7.0840   53.3920 O.2   537  GLN537     -0.2718
    131  CB        10.2980   -7.4490   50.7880 C.3   537  GLN537      0.0381
    132  CG         9.1480   -6.5070   50.9280 C.3   537  GLN537      0.0905
    133  CD         7.8660   -7.2050   50.6440 C.2   537  GLN537      0.2608
    134  OE1        7.6430   -8.2950   51.1390 O.2   537  GLN537     -0.2717
    135  NE2        7.0140   -6.5920   49.8500 N.am  537  GLN537     -0.0878
    136  N         11.5960   -4.9810   52.6010 N.am  538  GLN538     -0.1966
    137  CA        11.6520   -4.3510   53.8980 C.3   538  GLN538      0.1733
    138  C         10.8740   -5.1740   54.8700 C.2   538  GLN538      0.2616
    139  O          9.7810   -5.5970   54.5480 O.2   538  GLN538     -0.2715
    140  CB        11.0180   -2.9890   53.8170 C.3   538  GLN538      0.0408
    141  CG        11.1210   -2.2060   55.0810 C.3   538  GLN538      0.0908
    142  CD        10.2680   -0.9830   55.0170 C.2   538  GLN538      0.2608
    143  OE1       10.1240   -0.3740   53.9610 O.2   538  GLN538     -0.2717
    144  NE2        9.6910   -0.6070   56.1520 N.am  538  GLN538     -0.0878
    145  N         11.4180   -5.4050   56.0570 N.am  539  LEU539     -0.1963
    146  CA        10.7040   -6.1910   57.0620 C.3   539  LEU539      0.1728
    147  C          9.3890   -5.5040   57.4190 C.2   539  LEU539      0.2616
    148  O          9.1830   -4.3380   57.0860 O.2   539  LEU539     -0.2715
    149  CB        11.5670   -6.3270   58.3050 C.3   539  LEU539      0.0311
    150  CG        11.1740   -7.2930   59.4120 C.3   539  LEU539      0.0022
    151  CD1       10.9920   -8.6940   58.8990 C.3   539  LEU539      0.0001
    152  CD2       12.2950   -7.2750   60.4290 C.3   539  LEU539      0.0001
    153  N          8.4910   -6.2190   58.0810 N.am  540  TRP540     -0.1960
    154  CA         7.2050   -5.6400   58.4830 C.3   540  TRP540      0.1771
    155  C          6.3690   -6.7630   59.0360 C.2   540  TRP540      0.2620
    156  O          5.4530   -7.2170   58.3910 O.2   540  TRP540     -0.2715
    157  CB         6.5110   -5.0130   57.2840 C.3   540  TRP540      0.0590
    158  CG         5.4320   -4.0360   57.6610 C.ar  540  TRP540      0.0006
    159  CD1        4.1360   -4.3290   57.9730 C.ar  540  TRP540      0.0946
    160  CD2        5.5250   -2.6030   57.6440 C.ar  540  TRP540      0.0152
    161  NE1        3.4160   -3.1740   58.1290 N.ar  540  TRP540     -0.2442
    162  CE2        4.2440   -2.1000   57.9310 C.ar  540  TRP540      0.0810
    163  CE3        6.5660   -1.6980   57.3990 C.ar  540  TRP540      0.0012
    164  CZ2        3.9690   -0.7290   57.9790 C.ar  540  TRP540      0.0191
    165  CZ3        6.2940   -0.3360   57.4450 C.ar  540  TRP540      0.0001
    166  CH2        5.0050    0.1330   57.7300 C.ar  540  TRP540      0.0015
    167  N          6.7190   -7.2020   60.2390 N.am  541  CYS541     -0.1954
    168  CA         6.0990   -8.3280   60.9420 C.3   541  CYS541      0.1843
    169  C          4.5690   -8.3710   61.0480 C.2   541  CYS541      0.2625
    170  O          3.9130   -7.3580   61.1950 O.2   541  CYS541     -0.2714
    171  CB         6.7120   -8.4390   62.3520 C.3   541  CYS541      0.0997
    172  SG         8.5380   -8.6170   62.4510 S.3   541  CYS541     -0.0797
    173  N          4.0100   -9.5690   60.9700 N.am  542  LEU542     -0.1977
    174  CA         2.5750   -9.7060   61.0800 C.3   542  LEU542      0.1596
    175  C          2.0990   -9.4020   62.4940 C.2   542  LEU542      0.2287
    176  O          2.7840   -9.6500   63.4920 O.2   542  LEU542     -0.2864
    177  CB         2.1400  -11.1120   60.6810 C.3   542  LEU542      0.0297
    178  CG         1.9340  -11.3770   59.1890 C.3   542  LEU542      0.0022
    179  CD1        1.5830  -12.8500   58.9500 C.3   542  LEU542      0.0001
    180  CD2        0.8300  -10.4510   58.6820 C.3   542  LEU542      0.0001
    181  N         -2.3970  -12.4610   58.8440 N.3   551  GLN551     -0.1245
    182  CA        -2.2660  -11.8150   57.5550 C.3   551  GLN551      0.1566
    183  C         -3.6280  -11.7210   56.8730 C.2   551  GLN551      0.2260
    184  O         -4.3470  -12.7120   56.7660 O.2   551  GLN551     -0.2867
    185  CB        -1.3350  -12.6110   56.6500 C.3   551  GLN551      0.0367
    186  CG        -1.3910  -12.1530   55.1980 C.3   551  GLN551      0.0905
    187  CD        -0.5730  -13.0310   54.2730 C.2   551  GLN551      0.2608
    188  OE1        0.6590  -12.9780   54.2690 O.2   551  GLN551     -0.2717
    189  NE2       -1.2560  -13.8600   53.4910 N.am  551  GLN551     -0.0878
    190  N          5.6300  -15.8680   62.4990 N.3   572  LEU572     -0.1231
    191  CA         5.6780  -14.7610   61.5540 C.3   572  LEU572      0.1693
    192  C          5.4860  -15.1040   60.0830 C.2   572  LEU572      0.2592
    193  O          5.0120  -14.2770   59.3220 O.2   572  LEU572     -0.2718
    194  CB         7.0040  -14.0150   61.7030 C.3   572  LEU572      0.0284
    195  CG         7.1290  -12.9110   62.7640 C.3   572  LEU572      0.0019
    196  CD1        6.9360  -13.4430   64.1590 C.3   572  LEU572      0.0001
    197  CD2        8.5020  -12.2890   62.6480 C.3   572  LEU572      0.0001
    198  N          5.8530  -16.3060   59.6620 N.am  573  VAL573     -0.1966
    199  CA         5.7150  -16.6560   58.2650 C.3   573  VAL573      0.1727
    200  C          4.5210  -17.5500   57.9620 C.2   573  VAL573      0.2616
    201  O          4.4880  -18.7280   58.3260 O.2   573  VAL573     -0.2715
    202  CB         6.9750  -17.3450   57.7620 C.3   573  VAL573      0.0290
    203  CG1        6.7900  -17.7900   56.3600 C.3   573  VAL573      0.0023
    204  CG2        8.1350  -16.4200   57.8450 C.3   573  VAL573      0.0023
    205  N          3.5260  -16.9810   57.2950 N.am  574  ILE574     -0.1963
    206  CA         2.3590  -17.7510   56.9040 C.3   574  ILE574      0.1727
    207  C          2.8390  -18.8550   55.9570 C.2   574  ILE574      0.2616
    208  O          3.6760  -18.6180   55.0720 O.2   574  ILE574     -0.2715
    209  CB         1.3550  -16.8840   56.1520 C.3   574  ILE574      0.0290
    210  CG1        0.7270  -15.8610   57.0920 C.3   574  ILE574      0.0022
    211  CG2        0.3090  -17.7540   55.5180 C.3   574  ILE574      0.0023
    212  CD1       -0.2900  -16.4360   58.0590 C.3   574  ILE574      0.0001
    213  N          2.3030  -20.0590   56.1640 N.am  575  LYS575     -0.1963
    214  CA         2.6250  -21.2310   55.3490 C.3   575  LYS575      0.1728
    215  C          1.3410  -21.9330   54.8440 C.2   575  LYS575      0.2616
    216  O          0.2160  -21.7050   55.3290 O.2   575  LYS575     -0.2715
    217  CB         3.4410  -22.2570   56.1580 C.3   575  LYS575      0.0311
    218  CG         4.4790  -21.7020   57.1340 C.3   575  LYS575      0.0038
    219  CD         5.8970  -22.0740   56.7040 C.3   575  LYS575      0.0206
    220  CE         6.1380  -23.5930   56.6800 C.3   575  LYS575      0.1093
    221  NZ         7.4820  -24.0010   56.1280 N.3   575  LYS575     -0.1314
    222  N          1.5480  -22.8110   53.8680 N.am  576  LYS576     -0.1977
    223  CA         0.4880  -23.6010   53.2500 C.3   576  LYS576      0.1596
    224  C         -0.3710  -24.2970   54.3150 C.2   576  LYS576      0.2287
    225  O         -1.5750  -24.4850   54.1320 O.2   576  LYS576     -0.2864
    226  CB         1.1360  -24.6450   52.3190 C.3   576  LYS576      0.0298
    227  CG         0.1800  -25.5800   51.5770 C.3   576  LYS576      0.0038
    228  CD        -0.6700  -24.8230   50.5680 C.3   576  LYS576      0.0206
    229  CE        -1.5290  -25.7700   49.7210 C.3   576  LYS576      0.1093
    230  NZ        -2.2550  -25.0260   48.6290 N.3   576  LYS576     -0.1314
@<TRIPOS>BOND
     1    49    50    1
     2    51    52    2
     3    51    50    1
     4    43    44    2
     5    43    42    1
     6    50    53    1
     7    94    92    1
     8    93    92    1
     9    92    91    2
    10    42    41    1
    11    42    45    1
    12    91    90    1
    13    90    89    1
    14    53    54    1
    15    80    81    1
    16     1     2    1
    17    45    46    1
    18    81    82    1
    19    83    82    2
    20    54    55    1
    21    89    88    1
    22    47    46    2
    23    55    56    1
    24     4     3    2
    25    82    84   am
    26    46    48   am
    27     2     3    1
    28     2     5    1
    29    88    85    1
    30    39    38   ar
    31     5     6    1
    32    34    33    1
    33    34    35    2
    34    84    85    1
    35    56    57    1
    36    74    73    2
    37    85    86    1
    38    33    36    1
    39    33    32    1
    40    36    37    1
    41    11     9    1
    42    38    37    1
    43    38    40   ar
    44    73    72    1
    45     6     7    1
    46    86    87    2
    47    86    95   am
    48    23    22    2
    49   230   229    1
    50     9    10    1
    51     9     8    2
    52    32    22   am
    53   100    99    1
    54    61    60    2
    55     7     8    1
    56    95    96    1
    57    22    21    1
    58    72    75    1
    59    72    71    1
    60    75    76    1
    61    12    13    1
    62   229   228    1
    63   135   133   am
    64    99    96    1
    65    58    59    1
    66   109   110    1
    67   109   106    1
    68    19    17   ar
    69    60    59    1
    70    78    79    1
    71    78    77    1
    72    96    97    1
    73   108   107    2
    74   228   227    1
    75    17    18   ar
    76    17    16    1
    77   133   132    1
    78   133   134    2
    79    21    20    1
    80    21    24    1
    81    76    77    1
    82   131   132    1
    83   131   128    1
    84   127   128    1
    85    13    16    1
    86    13    14    1
    87    15    14    2
    88    59    62    1
    89   128   129    1
    90   107   106    1
    91   106   105    1
    92   101    97   am
    93   101   102    1
    94   105   103   am
    95   118   116    1
    96    97    98    2
    97    24    25    1
    98   227   226    1
    99    62    63    1
   100    69    68    2
   101   226   223    1
   102   102   103    1
   103   129   136   am
   104   129   130    2
   105   103   104    2
   106    63    64    1
   107    63    65    1
   108   136   137    1
   109   116   115    1
   110   111   112    1
   111    25    26   ar
   112    25    27   ar
   113    68    67    1
   114   223   222    1
   115   223   224    1
   116   112   115    1
   117   112   113    1
   118   189   187   am
   119    26    28   ar
   120    27    29   ar
   121   140   137    1
   122   140   141    1
   123   115   117    1
   124   222   215   am
   125   137   138    1
   126   143   142    2
   127    70    67    1
   128   225   224    2
   129   188   187    2
   130   187   186    1
   131    67    66    1
   132   139   138    2
   133   113   114    2
   134   215   216    2
   135   215   214    1
   136   138   145   am
   137   142   141    1
   138   142   144   am
   139   208   207    2
   140    28    30   ar
   141    29    30   ar
   142   186   185    1
   143   214   217    1
   144   214   213    1
   145   211   209    1
   146    30    31    1
   147   207   213   am
   148   207   206    1
   149   145   146    1
   150   221   220    1
   151   209   206    1
   152   209   210    1
   153   217   218    1
   154   203   202    1
   155   185   182    1
   156   220   219    1
   157   219   218    1
   158   184   183    2
   159   183   182    1
   160   206   205    1
   161   146   147    1
   162   146   149    1
   163   148   147    2
   164   210   212    1
   165   126   124    1
   166   157   158    1
   167   157   154    1
   168   205   200   am
   169   163   165   ar
   170   163   160   ar
   171   147   153   am
   172   165   166   ar
   173   182   181    1
   174   119   120    1
   175   160   158   ar
   176   160   162   ar
   177   158   159   ar
   178   166   164   ar
   179   202   204    1
   180   202   199    1
   181   162   164   ar
   182   162   161   ar
   183   200   199    1
   184   200   201    2
   185   159   161   ar
   186   153   154    1
   187   124   123    1
   188   124   125    1
   189   120   123    1
   190   120   121    1
   191   199   198    1
   192   149   150    1
   193   156   155    2
   194   154   155    1
   195   180   178    1
   196   151   150    1
   197   179   178    1
   198   155   167   am
   199   121   122    2
   200   178   177    1
   201   193   192    2
   202   150   152    1
   203   198   192   am
   204   192   191    1
   205   167   168    1
   206   177   174    1
   207   168   169    1
   208   168   171    1
   209   173   169   am
   210   173   174    1
   211   169   170    2
   212   174   175    1
   213   191   194    1
   214   191   190    1
   215   194   195    1
   216   171   172    1
   217   175   176    2
   218   197   195    1
   219   195   196    1
