@<TRIPOS>MOLECULE
tmp/2io8A00.pdb
 84 76 0 0 0
SMALL
GASTEIGER

@<TRIPOS>ATOM
      1  N         -3.1840    6.4660   -1.3110 N.3   299  ARG299     -0.1245
      2  CA        -2.4200    6.6020   -2.5400 C.3   299  ARG299      0.1563
      3  C         -1.0540    7.2310   -2.2780 C.2   299  ARG299      0.2260
      4  O         -0.9870    8.2870   -1.6840 O.2   299  ARG299     -0.2867
      5  CB        -3.1860    7.4750   -3.5660 C.3   299  ARG299      0.0307
      6  CG        -2.4160    7.7230   -4.8720 C.3   299  ARG299      0.0489
      7  CD        -3.2550    8.3940   -5.9900 C.3   299  ARG299      0.2205
      8  NE        -4.0380    9.5460   -5.5270 N.pl3 299  ARG299     -0.0865
      9  CZ        -3.5330   10.7400   -5.2390 C.cat 299  ARG299      0.5346
     10  NH1       -2.2320   10.9570   -5.3720 N.pl3 299  ARG299      0.1354
     11  NH2       -4.3290   11.7110   -4.7920 N.pl3 299  ARG299      0.1354
     12  N         -8.1020    9.5700   -4.2250 N.3   320  SER320     -0.1202
     13  CA        -8.9650    9.2640   -5.3540 C.3   320  SER320      0.2020
     14  C         -8.1150    8.6760   -6.5000 C.2   320  SER320      0.2619
     15  O         -6.9970    8.2140   -6.2720 O.2   320  SER320     -0.2717
     16  CB        -9.7000   10.5460   -5.7760 C.3   320  SER320      0.2103
     17  OG        -8.8040   11.6550   -5.7320 O.3   320  SER320     -0.2182
     18  N         -8.6520    8.6990   -7.7150 N.am  321  CYS321     -0.1969
     19  CA        -8.0010    8.1730   -8.9190 C.3   321  CYS321      0.1712
     20  C         -8.3410    6.6940   -9.1220 C.2   321  CYS321      0.2296
     21  O         -7.9990    6.1150  -10.1520 O.2   321  CYS321     -0.2864
     22  CB        -6.4630    8.3430   -8.8730 C.3   321  CYS321      0.0983
     23  SG        -5.8610   10.0800   -8.8390 S.3   321  CYS321     -0.0798
     24  N        -10.4540    6.1290  -12.2660 N.3   324  GLU324     -0.1245
     25  CA        -9.6050    6.2950  -13.4310 C.3   324  GLU324      0.1567
     26  C         -8.7180    5.0670  -13.6990 C.2   324  GLU324      0.2260
     27  O         -8.8390    4.4110  -14.7430 O.2   324  GLU324     -0.2867
     28  CB        -8.7050    7.5180  -13.2720 C.3   324  GLU324      0.0388
     29  CG        -9.4080    8.8700  -13.4480 C.3   324  GLU324      0.1160
     30  CD       -10.1530    9.3250  -12.2000 C.2   324  GLU324      0.3649
     31  OE1      -10.4880   10.5290  -12.1230 O.co2 324  GLU324     -0.2457
     32  OE2      -10.4030    8.4840  -11.3030 O.co2 324  GLU324     -0.2457
     33  N        -18.6620    9.9690   -9.3600 N.3   377  TYR377     -0.1241
     34  CA       -18.1650    8.6960   -9.8340 C.3   377  TYR377      0.1605
     35  C        -17.2300    8.0300   -8.8600 C.2   377  TYR377      0.2264
     36  O        -17.1020    6.8150   -8.8790 O.2   377  TYR377     -0.2867
     37  CB       -17.5190    8.8210  -11.2270 C.3   377  TYR377      0.0534
     38  CG       -16.3040    9.6940  -11.3320 C.ar  377  TYR377     -0.0201
     39  CD1      -15.0330    9.1860  -11.0530 C.ar  377  TYR377     -0.0009
     40  CD2      -16.4100   11.0030  -11.8180 C.ar  377  TYR377     -0.0009
     41  CE1      -13.8910    9.9590  -11.2790 C.ar  377  TYR377      0.0417
     42  CE2      -15.2830   11.7880  -12.0400 C.ar  377  TYR377      0.0417
     43  CZ       -14.0260   11.2610  -11.7800 C.ar  377  TYR377      0.1957
     44  OH       -12.9060   12.0090  -12.0670 O.3   377  TYR377     -0.2866
     45  N         -3.5970   18.2460   -3.6330 N.3   519  CYS519     -0.1235
     46  CA        -3.7000   18.5580   -5.0530 C.3   519  CYS519      0.1677
     47  C         -2.7050   19.5090   -5.7000 C.2   519  CYS519      0.2270
     48  O         -3.0320   20.1510   -6.7110 O.2   519  CYS519     -0.2867
     49  CB        -5.1050   19.0680   -5.3690 C.3   519  CYS519      0.0956
     50  SG        -6.4580   17.9550   -4.8980 S.3   519  CYS519     -0.0801
     51  N          0.1930    9.9300  -13.6810 N.3   578  ARG578     -0.1245
     52  CA        -0.3910   11.2640  -13.7610 C.3   578  ARG578      0.1563
     53  C          0.6580   12.0670  -14.5280 C.2   578  ARG578      0.2260
     54  O          1.8580   11.8880  -14.3070 O.2   578  ARG578     -0.2867
     55  CB        -0.5820   11.8450  -12.3640 C.3   578  ARG578      0.0307
     56  CG        -1.6780   11.1500  -11.5650 C.3   578  ARG578      0.0489
     57  CD        -3.0110   11.8890  -11.7050 C.3   578  ARG578      0.2205
     58  NE        -3.1840   12.8450  -10.6070 N.pl3 578  ARG578     -0.0865
     59  CZ        -4.0740   13.8290  -10.5980 C.cat 578  ARG578      0.5346
     60  NH1       -4.8910   14.0010  -11.6290 N.pl3 578  ARG578      0.1354
     61  NH2       -4.1290   14.6600   -9.5630 N.pl3 578  ARG578      0.1354
     62  N         -4.7190   18.5440   -9.2370 N.3   587  LYS587     -0.1245
     63  CA        -5.9860   17.8510   -9.3500 C.3   587  LYS587      0.1561
     64  C         -6.4070   17.7230  -10.8110 C.2   587  LYS587      0.2260
     65  O         -7.0110   16.7260  -11.1940 O.2   587  LYS587     -0.2867
     66  CB        -7.0620   18.6040   -8.5750 C.3   587  LYS587      0.0271
     67  CG        -8.4030   17.8860   -8.5050 C.3   587  LYS587      0.0035
     68  CD        -9.4180   18.7470   -7.7580 C.3   587  LYS587      0.0206
     69  CE       -10.8060   18.1220   -7.7900 C.3   587  LYS587      0.1093
     70  NZ       -11.7820   18.9300   -7.0050 N.3   587  LYS587     -0.1314
     71  N         -4.3620   17.5320  -13.4620 N.3   589  SER589     -0.1217
     72  CA        -3.3840   16.8530  -14.3070 C.3   589  SER589      0.1889
     73  C         -4.0920   15.6270  -14.8650 C.2   589  SER589      0.2288
     74  O         -4.9300   15.0680  -14.2000 O.2   589  SER589     -0.2866
     75  CB        -2.1860   16.4360  -13.4610 C.3   589  SER589      0.2089
     76  OG        -1.5730   17.5880  -12.9280 O.3   589  SER589     -0.2183
     77  N         -4.7410   11.6250  -16.3790 N.3   591  ILE591     -0.1245
     78  CA        -4.3820   10.2520  -16.1260 C.3   591  ILE591      0.1561
     79  C         -3.8550    9.7770  -17.4620 C.2   591  ILE591      0.2260
     80  O         -4.4320   10.0730  -18.5000 O.2   591  ILE591     -0.2867
     81  CB        -5.6010    9.4050  -15.7450 C.3   591  ILE591      0.0252
     82  CG1       -6.1760    9.9220  -14.4250 C.3   591  ILE591      0.0019
     83  CG2       -5.1900    7.9200  -15.5990 C.3   591  ILE591      0.0019
     84  CD1       -5.1330   10.0000  -13.2980 C.3   591  ILE591      0.0001
@<TRIPOS>BOND
     1    80    79    2
     2    79    78    1
     3    77    78    1
     4    78    81    1
     5    81    83    1
     6    81    82    1
     7    73    72    1
     8    73    74    2
     9    27    26    2
    10    53    54    2
    11    53    52    1
    12    82    84    1
    13    72    71    1
    14    72    75    1
    15    52    51    1
    16    52    55    1
    17    26    25    1
    18    75    76    1
    19    29    28    1
    20    29    30    1
    21    25    28    1
    22    25    24    1
    23    55    56    1
    24    30    31   ar
    25    30    32   ar
    26    44    43    1
    27    42    40   ar
    28    42    43   ar
    29    40    38   ar
    30    43    41   ar
    31    57    56    1
    32    57    58    1
    33    60    59    1
    34    38    37    1
    35    38    39   ar
    36    41    39   ar
    37    37    34    1
    38    65    64    2
    39    64    63    1
    40    58    59    2
    41    59    61    1
    42    21    20    2
    43    34    33    1
    44    34    35    1
    45    63    62    1
    46    63    66    1
    47    20    19    1
    48    19    22    1
    49    19    18    1
    50    36    35    2
    51    22    23    1
    52    66    67    1
    53    67    68    1
    54    69    68    1
    55    69    70    1
    56    18    14   am
    57    48    47    2
    58    14    15    2
    59    14    13    1
    60     7     8    1
    61     7     6    1
    62    16    17    1
    63    16    13    1
    64    47    46    1
    65     8     9    2
    66    10     9    1
    67    49    46    1
    68    49    50    1
    69    13    12    1
    70     9    11    1
    71    46    45    1
    72     6     5    1
    73     5     2    1
    74     2     3    1
    75     2     1    1
    76     3     4    2
