@<TRIPOS>MOLECULE
tmp/2io9B01.pdb
 168 156 0 0 0
SMALL
GASTEIGER

@<TRIPOS>ATOM
      1  N         -9.4370  -32.0520   54.4600 N.3   226  ASN226     -0.1240
      2  CA        -9.1290  -31.4290   55.7310 C.3   226  ASN226      0.1653
      3  C         -9.8830  -31.8640   56.9970 C.2   226  ASN226      0.2266
      4  O         -9.4980  -31.4930   58.0800 O.2   226  ASN226     -0.2867
      5  CB        -9.3400  -29.9200   55.5820 C.3   226  ASN226      0.1155
      6  CG        -8.4210  -29.2910   54.5310 C.2   226  ASN226      0.2627
      7  OD1       -7.2220  -29.2400   54.7240 O.2   226  ASN226     -0.2716
      8  ND2       -8.9900  -28.8020   53.4330 N.am  226  ASN226     -0.0877
      9  N         -4.8380  -13.2320   44.3340 N.3   301  ARG301     -0.1245
     10  CA        -4.8990  -12.9670   45.7590 C.3   301  ARG301      0.1563
     11  C         -3.7210  -12.1660   46.2470 C.2   301  ARG301      0.2260
     12  O         -2.5810  -12.5660   46.0100 O.2   301  ARG301     -0.2867
     13  CB        -4.9260  -14.2860   46.5580 C.3   301  ARG301      0.0307
     14  CG        -5.6690  -14.1850   47.8990 C.3   301  ARG301      0.0489
     15  CD        -5.4510  -15.3800   48.8620 C.3   301  ARG301      0.2205
     16  NE        -4.0520  -15.4980   49.2400 N.pl3 301  ARG301     -0.0865
     17  CZ        -3.2230  -16.4710   48.8350 C.cat 301  ARG301      0.5346
     18  NH1       -3.6540  -17.4480   48.0230 N.pl3 301  ARG301      0.1354
     19  NH2       -1.9550  -16.4540   49.2320 N.pl3 301  ARG301      0.1354
     20  N         -1.5090  -10.6170   49.4330 N.3   303  ASP303     -0.1239
     21  CA        -1.2130  -10.8900   50.8400 C.3   303  ASP303      0.1674
     22  C         -0.7580   -9.5580   51.4330 C.2   303  ASP303      0.2266
     23  O          0.1540   -8.9180   50.9060 O.2   303  ASP303     -0.2867
     24  CB        -0.0920  -11.9320   50.9980 C.3   303  ASP303      0.1410
     25  CG        -0.4760  -13.3190   50.4510 C.2   303  ASP303      0.3668
     26  OD1       -1.7050  -13.6340   50.3170 O.co2 303  ASP303     -0.2456
     27  OD2        0.4760  -14.0890   50.1770 O.co2 303  ASP303     -0.2456
     28  N          2.8250   -9.3380   48.5570 N.3   315  GLU315     -0.1245
     29  CA         2.8880   -9.9160   47.2000 C.3   315  GLU315      0.1567
     30  C          1.5270  -10.0140   46.5830 C.2   315  GLU315      0.2260
     31  O          0.5180   -9.8550   47.2900 O.2   315  GLU315     -0.2867
     32  CB         3.4690  -11.3550   47.2310 C.3   315  GLU315      0.0388
     33  CG         2.5660  -12.3160   48.0580 C.3   315  GLU315      0.1160
     34  CD         2.7180  -13.8250   47.6970 C.2   315  GLU315      0.3649
     35  OE1        3.2180  -14.1810   46.6310 O.co2 315  GLU315     -0.2457
     36  OE2        2.3060  -14.6740   48.4870 O.co2 315  GLU315     -0.2457
     37  N         -0.4160  -12.8330   44.3070 N.3   317  ASN317     -0.1240
     38  CA        -0.4700  -14.1500   43.7300 C.3   317  ASN317      0.1653
     39  C         -1.4500  -14.0340   42.5570 C.2   317  ASN317      0.2266
     40  O         -2.6380  -14.3610   42.6660 O.2   317  ASN317     -0.2867
     41  CB        -0.9350  -15.1210   44.7950 C.3   317  ASN317      0.1155
     42  CG         0.0680  -15.2420   45.9550 C.2   317  ASN317      0.2627
     43  OD1        1.0860  -15.9020   45.8120 O.2   317  ASN317     -0.2716
     44  ND2       -0.2230  -14.6050   47.1050 N.am  317  ASN317     -0.0877
     45  N         -1.5610  -18.3190   40.0470 N.3   320  SER320     -0.1202
     46  CA        -2.4960  -19.3440   40.5040 C.3   320  SER320      0.2020
     47  C         -2.6950  -19.2880   42.0350 C.2   320  SER320      0.2619
     48  O         -1.9710  -19.9090   42.8020 O.2   320  SER320     -0.2717
     49  CB        -1.9920  -20.7340   40.1020 C.3   320  SER320      0.2103
     50  OG        -0.8090  -20.9870   40.7980 O.3   320  SER320     -0.2182
     51  N         -3.7030  -18.5780   42.4630 N.am  321  ALA321     -0.1965
     52  CA        -3.9880  -18.4330   43.8730 C.3   321  ALA321      0.1728
     53  C         -5.1380  -19.2910   44.3520 C.2   321  ALA321      0.2617
     54  O         -6.0510  -19.5760   43.5920 O.2   321  ALA321     -0.2715
     55  CB        -4.3080  -16.9740   44.1490 C.3   321  ALA321      0.0334
     56  N         -5.1150  -19.7080   45.6150 N.am  322  SER322     -0.1936
     57  CA        -6.2510  -20.4540   46.1330 C.3   322  SER322      0.2055
     58  C         -6.7870  -19.7310   47.3900 C.2   322  SER322      0.2643
     59  O         -6.4420  -18.5360   47.5880 O.2   322  SER322     -0.2714
     60  CB        -5.8740  -21.9130   46.4410 C.3   322  SER322      0.2130
     61  OG        -4.7350  -22.0010   47.2540 O.3   322  SER322     -0.2179
     62  N         -7.5890  -20.4520   48.2030 N.am  323  CYS323     -0.1967
     63  CA        -8.2360  -19.9930   49.4600 C.3   323  CYS323      0.1712
     64  C         -9.6350  -19.5170   49.1810 C.2   323  CYS323      0.2296
     65  O        -10.3850  -19.1800   50.1030 O.2   323  CYS323     -0.2864
     66  CB        -7.4870  -18.8610   50.1790 C.3   323  CYS323      0.0983
     67  SG        -5.8340  -19.3540   50.7620 S.3   323  CYS323     -0.0798
     68  N        -12.3220  -21.7070   50.9900 N.3   326  GLU326     -0.1245
     69  CA       -12.3010  -21.4200   52.4140 C.3   326  GLU326      0.1567
     70  C        -13.0300  -20.1150   52.7140 C.2   326  GLU326      0.2260
     71  O        -13.9130  -20.0710   53.5750 O.2   326  GLU326     -0.2867
     72  CB       -10.8480  -21.2880   52.9560 C.3   326  GLU326      0.0388
     73  CG        -9.9890  -22.6060   53.1180 C.3   326  GLU326      0.1160
     74  CD        -9.4450  -23.2240   51.8220 C.2   326  GLU326      0.3649
     75  OE1       -9.7220  -22.7080   50.6950 O.co2 326  GLU326     -0.2457
     76  OE2       -8.7310  -24.2430   51.9450 O.co2 326  GLU326     -0.2457
     77  N         -6.1460  -32.0420   47.9370 N.3   376  GLU376     -0.1245
     78  CA        -6.2830  -30.6590   48.3800 C.3   376  GLU376      0.1567
     79  C         -6.7200  -29.7160   47.2590 C.2   376  GLU376      0.2260
     80  O         -7.3290  -28.6660   47.4960 O.2   376  GLU376     -0.2867
     81  CB        -4.9460  -30.2050   48.9690 C.3   376  GLU376      0.0388
     82  CG        -3.7740  -31.1170   48.5230 C.3   376  GLU376      0.1160
     83  CD        -2.4200  -30.7330   49.1490 C.2   376  GLU376      0.3649
     84  OE1       -2.1260  -29.5120   49.1060 O.co2 376  GLU376     -0.2457
     85  OE2       -1.6620  -31.6340   49.6540 O.co2 376  GLU376     -0.2457
     86  N        -11.0940  -29.6950   45.9140 N.3   379  TYR379     -0.1241
     87  CA       -12.1620  -28.7760   46.1970 C.3   379  TYR379      0.1605
     88  C        -11.9580  -27.4540   45.5010 C.2   379  TYR379      0.2264
     89  O        -12.9270  -26.8720   45.1130 O.2   379  TYR379     -0.2867
     90  CB       -12.3700  -28.6070   47.7290 C.3   379  TYR379      0.0534
     91  CG       -11.1710  -28.0510   48.5050 C.ar  379  TYR379     -0.0201
     92  CD1      -10.9710  -26.6730   48.6200 C.ar  379  TYR379     -0.0009
     93  CD2      -10.2890  -28.9080   49.2060 C.ar  379  TYR379     -0.0009
     94  CE1       -9.9590  -26.1810   49.4210 C.ar  379  TYR379      0.0417
     95  CE2       -9.2420  -28.3940   50.0350 C.ar  379  TYR379      0.0417
     96  CZ        -9.1150  -27.0610   50.1310 C.ar  379  TYR379      0.1957
     97  OH        -8.2120  -26.5400   50.9940 O.3   379  TYR379     -0.2866
     98  N          6.4080  -19.6050   46.6020 N.3   523  ARG523     -0.1231
     99  CA         5.0470  -19.4870   47.1080 C.3   523  ARG523      0.1694
    100  C          4.8900  -20.3050   48.3800 C.2   523  ARG523      0.2592
    101  O          5.8090  -21.0130   48.7690 O.2   523  ARG523     -0.2718
    102  CB         4.0540  -19.9470   46.0600 C.3   523  ARG523      0.0321
    103  CG         4.3350  -21.2840   45.5070 C.3   523  ARG523      0.0489
    104  CD         3.3680  -21.5580   44.3670 C.3   523  ARG523      0.2205
    105  NE         4.0760  -22.2210   43.2760 N.pl3 523  ARG523     -0.0865
    106  CZ         4.3620  -23.5210   43.2210 C.cat 523  ARG523      0.5346
    107  NH1        4.0030  -24.3510   44.2030 N.pl3 523  ARG523      0.1354
    108  NH2        5.0180  -24.0020   42.1750 N.pl3 523  ARG523      0.1354
    109  N          3.7370  -20.1870   49.0340 N.am  524  CYS524     -0.1970
    110  CA         3.4450  -20.9470   50.2400 C.3   524  CYS524      0.1712
    111  C          4.3410  -20.6340   51.4310 C.2   524  CYS524      0.2296
    112  O          4.3540  -21.3600   52.4300 O.2   524  CYS524     -0.2864
    113  CB         3.5220  -22.4490   49.9430 C.3   524  CYS524      0.0983
    114  SG         2.5480  -22.9060   48.4980 S.3   524  CYS524     -0.0798
    115  N         -5.4240  -15.2480   57.3450 N.3   583  ARG583     -0.1245
    116  CA        -4.6050  -16.4470   57.5240 C.3   583  ARG583      0.1563
    117  C         -3.9860  -16.1660   58.8810 C.2   583  ARG583      0.2260
    118  O         -3.6150  -15.0100   59.1920 O.2   583  ARG583     -0.2867
    119  CB        -3.5020  -16.6010   56.4790 C.3   583  ARG583      0.0307
    120  CG        -3.9800  -16.7420   55.0640 C.3   583  ARG583      0.0489
    121  CD        -4.9750  -17.8640   54.9700 C.3   583  ARG583      0.2205
    122  NE        -4.3830  -19.1790   55.1750 N.pl3 583  ARG583     -0.0865
    123  CZ        -3.5130  -19.7660   54.3390 C.cat 583  ARG583      0.5346
    124  NH1       -3.1030  -19.1700   53.2270 N.pl3 583  ARG583      0.1354
    125  NH2       -3.0710  -20.9810   54.5900 N.pl3 583  ARG583      0.1354
    126  N          3.4370  -16.8820   56.9780 N.3   590  ILE590     -0.1231
    127  CA         2.2680  -17.6560   56.5940 C.3   590  ILE590      0.1692
    128  C          2.7280  -18.7130   55.5740 C.2   590  ILE590      0.2592
    129  O          3.6230  -18.4730   54.7740 O.2   590  ILE590     -0.2718
    130  CB         1.1960  -16.7980   55.9540 C.3   590  ILE590      0.0266
    131  CG1        0.7070  -15.7480   56.9620 C.3   590  ILE590      0.0019
    132  CG2        0.0690  -17.6950   55.4250 C.3   590  ILE590      0.0020
    133  CD1       -0.0850  -16.3060   58.2010 C.3   590  ILE590      0.0001
    134  N          2.0750  -19.8720   55.6210 N.am  591  LYS591     -0.1966
    135  CA         2.3830  -20.9870   54.7590 C.3   591  LYS591      0.1728
    136  C          1.1260  -21.6300   54.2310 C.2   591  LYS591      0.2616
    137  O         -0.0140  -21.2320   54.5930 O.2   591  LYS591     -0.2715
    138  CB         3.2100  -22.0040   55.5290 C.3   591  LYS591      0.0311
    139  CG         4.4820  -21.3990   56.0450 C.3   591  LYS591      0.0038
    140  CD         5.2050  -22.3250   56.9790 C.3   591  LYS591      0.0206
    141  CE         6.3210  -21.5510   57.7260 C.3   591  LYS591      0.1093
    142  NZ         5.9570  -20.9090   59.0810 N.3   591  LYS591     -0.1314
    143  N          1.3330  -22.5960   53.3390 N.am  592  LYS592     -0.1963
    144  CA         0.2110  -23.2950   52.7570 C.3   592  LYS592      0.1728
    145  C         -0.6980  -23.8890   53.8500 C.2   592  LYS592      0.2616
    146  O         -1.9130  -23.8530   53.7510 O.2   592  LYS592     -0.2715
    147  CB         0.7290  -24.4000   51.8130 C.3   592  LYS592      0.0311
    148  CG        -0.2950  -25.0780   50.9550 C.3   592  LYS592      0.0038
    149  CD        -0.3110  -26.5030   51.3790 C.3   592  LYS592      0.0206
    150  CE        -1.2910  -27.3640   50.5680 C.3   592  LYS592      0.1093
    151  NZ        -2.7330  -27.0050   50.6730 N.3   592  LYS592     -0.1314
    152  N         -0.0890  -24.4030   54.9160 N.am  593  GLU593     -0.1977
    153  CA        -0.8590  -25.0240   55.9830 C.3   593  GLU593      0.1602
    154  C         -1.4190  -24.0990   57.0650 C.2   593  GLU593      0.2287
    155  O         -2.1340  -24.5540   57.9420 O.2   593  GLU593     -0.2864
    156  CB        -0.0490  -26.1910   56.6220 C.3   593  GLU593      0.0415
    157  CG         1.4070  -25.8610   56.9440 C.3   593  GLU593      0.1163
    158  CD         2.3200  -25.9250   55.7190 C.2   593  GLU593      0.3649
    159  OE1        3.3560  -25.2340   55.7120 O.co2 593  GLU593     -0.2457
    160  OE2        2.0130  -26.6840   54.7730 O.co2 593  GLU593     -0.2457
    161  N         -7.0730  -20.6080   58.0470 N.3   596  ILE596     -0.1245
    162  CA        -7.9330  -19.5750   57.5050 C.3   596  ILE596      0.1561
    163  C         -8.7290  -19.3090   58.8030 C.2   596  ILE596      0.2260
    164  O         -9.2290  -20.2540   59.4310 O.2   596  ILE596     -0.2867
    165  CB        -8.9110  -20.0890   56.4410 C.3   596  ILE596      0.0252
    166  CG1       -8.2090  -20.1770   55.0680 C.3   596  ILE596      0.0019
    167  CG2      -10.0550  -19.1000   56.3080 C.3   596  ILE596      0.0019
    168  CD1       -8.1080  -18.7620   54.2960 C.3   596  ILE596      0.0001
@<TRIPOS>BOND
     1    45    46    1
     2    49    46    1
     3    49    50    1
     4    46    47    1
     5    47    51   am
     6    47    48    2
     7   108   106    1
     8    51    52    1
     9    39    40    2
    10    39    38    1
    11   106   105    2
    12   106   107    1
    13   105   104    1
    14    54    53    2
    15    38    37    1
    16    38    41    1
    17    52    55    1
    18    52    53    1
    19     9    10    1
    20    53    56   am
    21   104   103    1
    22    41    42    1
    23    89    88    2
    24    88    87    1
    25   103   102    1
    26    56    57    1
    27    10    11    1
    28    10    13    1
    29    43    42    2
    30    86    87    1
    31    42    44   am
    32    12    11    2
    33   102    99    1
    34    57    60    1
    35    57    58    1
    36    87    90    1
    37    60    61    1
    38    13    14    1
    39    30    29    1
    40    30    31    2
    41    98    99    1
    42    35    34   ar
    43    99   100    1
    44    29    32    1
    45    29    28    1
    46    32    33    1
    47    79    80    2
    48    79    78    1
    49    58    59    2
    50    58    62   am
    51    34    33    1
    52    34    36   ar
    53    90    91    1
    54    14    15    1
    55    77    78    1
    56    18    17    1
    57    62    63    1
    58    78    81    1
    59   100   101    2
    60   100   109   am
    61   114   113    1
    62    91    92   ar
    63    91    93   ar
    64    82    81    1
    65    82    83    1
    66    92    94   ar
    67    17    19    1
    68    17    16    2
    69    15    16    1
    70   109   110    1
    71    84    83   ar
    72    83    85   ar
    73    64    63    1
    74    64    65    2
    75    93    95   ar
    76    94    96   ar
    77    20    21    1
    78    63    66    1
    79   113   110    1
    80    95    96   ar
    81    96    97    1
    82    27    25   ar
    83    66    67    1
    84   110   111    1
    85    26    25   ar
    86    25    24    1
    87   150   151    1
    88   150   149    1
    89    75    74   ar
    90    21    24    1
    91    21    22    1
    92    23    22    2
    93   148   149    1
    94   148   147    1
    95    68    69    1
    96   111   112    2
    97   147   144    1
    98    74    76   ar
    99    74    73    1
   100    69    70    1
   101    69    72    1
   102    70    71    2
   103   144   143    1
   104   144   145    1
   105    72    73    1
   106   124   123    1
   107   143   136   am
   108     8     6   am
   109   146   145    2
   110   145   152   am
   111   136   137    2
   112   136   135    1
   113   168   166    1
   114   123   125    1
   115   123   122    2
   116     1     2    1
   117     6     7    2
   118     6     5    1
   119   135   138    1
   120   135   134    1
   121   160   158   ar
   122   129   128    2
   123   152   153    1
   124   121   120    1
   125   121   122    1
   126   120   119    1
   127   166   165    1
   128   132   130    1
   129   138   139    1
   130   128   134   am
   131   128   127    1
   132     5     2    1
   133   159   158   ar
   134   158   157    1
   135     2     3    1
   136   130   127    1
   137   130   131    1
   138   153   156    1
   139   153   154    1
   140   139   140    1
   141   167   165    1
   142   165   162    1
   143   119   116    1
   144   127   126    1
   145   156   157    1
   146   131   133    1
   147   140   141    1
   148     3     4    2
   149   154   155    2
   150   115   116    1
   151   162   161    1
   152   162   163    1
   153   116   117    1
   154   141   142    1
   155   163   164    2
   156   117   118    2
