@<TRIPOS>MOLECULE
tmp/2io9B00.pdb
 212 201 0 0 0
SMALL
GASTEIGER

@<TRIPOS>ATOM
      1  N         -4.8380  -13.2320   44.3340 N.3   301  ARG301     -0.1245
      2  CA        -4.8990  -12.9670   45.7590 C.3   301  ARG301      0.1563
      3  C         -3.7210  -12.1660   46.2470 C.2   301  ARG301      0.2260
      4  O         -2.5810  -12.5660   46.0100 O.2   301  ARG301     -0.2867
      5  CB        -4.9260  -14.2860   46.5580 C.3   301  ARG301      0.0307
      6  CG        -5.6690  -14.1850   47.8990 C.3   301  ARG301      0.0489
      7  CD        -5.4510  -15.3800   48.8620 C.3   301  ARG301      0.2205
      8  NE        -4.0520  -15.4980   49.2400 N.pl3 301  ARG301     -0.0865
      9  CZ        -3.2230  -16.4710   48.8350 C.cat 301  ARG301      0.5346
     10  NH1       -3.6540  -17.4480   48.0230 N.pl3 301  ARG301      0.1354
     11  NH2       -1.9550  -16.4540   49.2320 N.pl3 301  ARG301      0.1354
     12  N         -1.5090  -10.6170   49.4330 N.3   303  ASP303     -0.1239
     13  CA        -1.2130  -10.8900   50.8400 C.3   303  ASP303      0.1674
     14  C         -0.7580   -9.5580   51.4330 C.2   303  ASP303      0.2266
     15  O          0.1540   -8.9180   50.9060 O.2   303  ASP303     -0.2867
     16  CB        -0.0920  -11.9320   50.9980 C.3   303  ASP303      0.1410
     17  CG        -0.4760  -13.3190   50.4510 C.2   303  ASP303      0.3668
     18  OD1       -1.7050  -13.6340   50.3170 O.co2 303  ASP303     -0.2456
     19  OD2        0.4760  -14.0890   50.1770 O.co2 303  ASP303     -0.2456
     20  N          2.6330   -7.5930   50.6900 N.3   314  TYR314     -0.1227
     21  CA         3.8190   -8.4330   50.5780 C.3   314  TYR314      0.1736
     22  C          3.9580   -8.9500   49.1460 C.2   314  TYR314      0.2595
     23  O          5.0870   -8.9900   48.5700 O.2   314  TYR314     -0.2718
     24  CB         3.7110   -9.6760   51.4560 C.3   314  TYR314      0.0548
     25  CG         3.6570   -9.4100   52.9330 C.ar  314  TYR314     -0.0200
     26  CD1        4.5500   -8.5130   53.5450 C.ar  314  TYR314     -0.0009
     27  CD2        2.7600  -10.1010   53.7420 C.ar  314  TYR314     -0.0009
     28  CE1        4.5370   -8.3230   54.9340 C.ar  314  TYR314      0.0417
     29  CE2        2.7460   -9.9130   55.1400 C.ar  314  TYR314      0.0417
     30  CZ         3.6220   -9.0360   55.7170 C.ar  314  TYR314      0.1957
     31  OH         3.5720   -8.8560   57.0840 O.3   314  TYR314     -0.2866
     32  N          2.8250   -9.3380   48.5570 N.am  315  GLU315     -0.1979
     33  CA         2.8880   -9.9160   47.2000 C.3   315  GLU315      0.1602
     34  C          1.5270  -10.0140   46.5830 C.2   315  GLU315      0.2287
     35  O          0.5180   -9.8550   47.2900 O.2   315  GLU315     -0.2864
     36  CB         3.4690  -11.3550   47.2310 C.3   315  GLU315      0.0415
     37  CG         2.5660  -12.3160   48.0580 C.3   315  GLU315      0.1163
     38  CD         2.7180  -13.8250   47.6970 C.2   315  GLU315      0.3649
     39  OE1        3.2180  -14.1810   46.6310 O.co2 315  GLU315     -0.2457
     40  OE2        2.3060  -14.6740   48.4870 O.co2 315  GLU315     -0.2457
     41  N         -0.4160  -12.8330   44.3070 N.3   317  ASN317     -0.1240
     42  CA        -0.4700  -14.1500   43.7300 C.3   317  ASN317      0.1653
     43  C         -1.4500  -14.0340   42.5570 C.2   317  ASN317      0.2266
     44  O         -2.6380  -14.3610   42.6660 O.2   317  ASN317     -0.2867
     45  CB        -0.9350  -15.1210   44.7950 C.3   317  ASN317      0.1155
     46  CG         0.0680  -15.2420   45.9550 C.2   317  ASN317      0.2627
     47  OD1        1.0860  -15.9020   45.8120 O.2   317  ASN317     -0.2716
     48  ND2       -0.2230  -14.6050   47.1050 N.am  317  ASN317     -0.0877
     49  N          8.0180  -12.0710   42.1850 N.3   483  LYS483     -0.1245
     50  CA         8.5090  -11.0470   43.0580 C.3   483  LYS483      0.1561
     51  C          9.5960  -10.1380   42.4870 C.2   483  LYS483      0.2260
     52  O          9.9030   -9.1070   43.0750 O.2   483  LYS483     -0.2867
     53  CB         8.8600  -11.6420   44.4230 C.3   483  LYS483      0.0271
     54  CG         7.5680  -12.2190   45.1020 C.3   483  LYS483      0.0035
     55  CD         7.8340  -12.7080   46.4990 C.3   483  LYS483      0.0206
     56  CE         6.6680  -13.4440   47.1700 C.3   483  LYS483      0.1093
     57  NZ         6.6040  -14.7870   46.5710 N.3   483  LYS483     -0.1314
     58  N          6.3410   -1.6790   50.0940 N.3   500  LEU500     -0.1245
     59  CA         7.5110   -1.8550   50.9500 C.3   500  LEU500      0.1561
     60  C          8.7090   -1.7030   50.0110 C.2   500  LEU500      0.2260
     61  O          8.6700   -2.1290   48.8500 O.2   500  LEU500     -0.2867
     62  CB         7.5080   -3.2390   51.5970 C.3   500  LEU500      0.0270
     63  CG         6.4170   -3.3750   52.6560 C.3   500  LEU500      0.0019
     64  CD1        6.2030   -4.8520   52.9500 C.3   500  LEU500      0.0001
     65  CD2        6.8360   -2.6350   53.9300 C.3   500  LEU500      0.0001
     66  N         13.0480   -9.1630   54.5310 N.3   516  ALA516     -0.1245
     67  CA        12.5570  -10.5170   54.2850 C.3   516  ALA516      0.1562
     68  C         13.2330  -10.9150   52.9860 C.2   516  ALA516      0.2260
     69  O         13.3430  -10.0770   52.0640 O.2   516  ALA516     -0.2867
     70  CB        11.0500  -10.5150   54.0940 C.3   516  ALA516      0.0290
     71  N         12.9670  -13.4680   49.8740 N.3   518  LYS518     -0.1245
     72  CA        11.9830  -14.3040   49.2340 C.3   518  LYS518      0.1561
     73  C         12.3120  -14.7000   47.7950 C.2   518  LYS518      0.2260
     74  O         12.7020  -13.8880   47.0030 O.2   518  LYS518     -0.2867
     75  CB        10.6360  -13.5920   49.3050 C.3   518  LYS518      0.0271
     76  CG        10.4100  -12.7530   50.5900 C.3   518  LYS518      0.0035
     77  CD         8.8970  -12.4450   50.8810 C.3   518  LYS518      0.0206
     78  CE         8.4870  -11.1580   50.1530 C.3   518  LYS518      0.1093
     79  NZ         7.0770  -10.6610   50.3270 N.3   518  LYS518     -0.1314
     80  N          8.7150  -18.1790   44.2340 N.3   522  GLY522     -0.1210
     81  CA         8.3250  -19.1270   45.2370 C.3   522  GLY522      0.1956
     82  C          6.8810  -18.9090   45.5700 C.2   522  GLY522      0.2612
     83  O          6.2100  -18.1300   44.8970 O.2   522  GLY522     -0.2717
     84  N          6.4080  -19.6050   46.6020 N.am  523  ARG523     -0.1965
     85  CA         5.0470  -19.4870   47.1080 C.3   523  ARG523      0.1729
     86  C          4.8900  -20.3050   48.3800 C.2   523  ARG523      0.2616
     87  O          5.8090  -21.0130   48.7690 O.2   523  ARG523     -0.2715
     88  CB         4.0540  -19.9470   46.0600 C.3   523  ARG523      0.0348
     89  CG         4.3350  -21.2840   45.5070 C.3   523  ARG523      0.0492
     90  CD         3.3680  -21.5580   44.3670 C.3   523  ARG523      0.2205
     91  NE         4.0760  -22.2210   43.2760 N.pl3 523  ARG523     -0.0865
     92  CZ         4.3620  -23.5210   43.2210 C.cat 523  ARG523      0.5346
     93  NH1        4.0030  -24.3510   44.2030 N.pl3 523  ARG523      0.1354
     94  NH2        5.0180  -24.0020   42.1750 N.pl3 523  ARG523      0.1354
     95  N          3.7370  -20.1870   49.0340 N.am  524  CYS524     -0.1954
     96  CA         3.4450  -20.9470   50.2400 C.3   524  CYS524      0.1843
     97  C          4.3410  -20.6340   51.4310 C.2   524  CYS524      0.2626
     98  O          4.3540  -21.3600   52.4300 O.2   524  CYS524     -0.2714
     99  CB         3.5220  -22.4490   49.9430 C.3   524  CYS524      0.0997
    100  SG         2.5480  -22.9060   48.4980 S.3   524  CYS524     -0.0797
    101  N          5.0890  -19.5600   51.3440 N.am  525  GLY525     -0.1940
    102  CA         5.9330  -19.2000   52.4640 C.3   525  GLY525      0.2014
    103  C          7.1930  -20.0530   52.5290 C.2   525  GLY525      0.2639
    104  O          7.7890  -20.2400   53.6100 O.2   525  GLY525     -0.2714
    105  N          7.5950  -20.5690   51.3690 N.am  526  SER526     -0.1949
    106  CA         8.7750  -21.3930   51.2710 C.3   526  SER526      0.1924
    107  C         10.0360  -20.5800   51.1250 C.2   526  SER526      0.2314
    108  O         10.0320  -19.5150   50.5250 O.2   526  SER526     -0.2863
    109  CB         8.6410  -22.3260   50.0840 C.3   526  SER526      0.2116
    110  OG         7.5240  -23.2000   50.2640 O.3   526  SER526     -0.2180
    111  N         11.7750  -18.5960   53.0300 N.3   528  ILE528     -0.1245
    112  CA        11.6790  -17.2140   53.4640 C.3   528  ILE528      0.1561
    113  C         12.6260  -16.9430   54.6690 C.2   528  ILE528      0.2260
    114  O         12.6800  -17.7420   55.6090 O.2   528  ILE528     -0.2867
    115  CB        10.2190  -16.9110   53.9040 C.3   528  ILE528      0.0252
    116  CG1        9.2220  -17.2670   52.7870 C.3   528  ILE528      0.0019
    117  CG2       10.1090  -15.4440   54.3260 C.3   528  ILE528      0.0019
    118  CD1        9.2060  -16.2120   51.5870 C.3   528  ILE528      0.0001
    119  N         13.5590  -14.0410   57.5270 N.3   530  LEU530     -0.1245
    120  CA        13.2290  -12.7560   58.1140 C.3   530  LEU530      0.1561
    121  C         14.4460  -12.3620   58.9530 C.2   530  LEU530      0.2260
    122  O         14.8560  -13.0970   59.8560 O.2   530  LEU530     -0.2867
    123  CB        11.9800  -12.8450   58.9990 C.3   530  LEU530      0.0270
    124  CG        10.6730  -13.2070   58.3030 C.3   530  LEU530      0.0019
    125  CD1        9.4840  -12.9180   59.2400 C.3   530  LEU530      0.0001
    126  CD2       10.5510  -12.3890   56.9880 C.3   530  LEU530      0.0001
    127  N         12.8970   -7.5160   50.7580 N.3   553  GLN553     -0.1231
    128  CA        11.8360   -6.6200   51.1010 C.3   553  GLN553      0.1698
    129  C         11.8620   -6.0970   52.5650 C.2   553  GLN553      0.2592
    130  O         11.9870   -6.8440   53.5210 O.2   553  GLN553     -0.2718
    131  CB        10.5030   -7.2950   50.8010 C.3   553  GLN553      0.0381
    132  CG         9.3510   -6.3120   50.9990 C.3   553  GLN553      0.0905
    133  CD         8.0430   -6.9280   50.6100 C.2   553  GLN553      0.2608
    134  OE1        7.3220   -6.4100   49.7590 O.2   553  GLN553     -0.2717
    135  NE2        7.7500   -8.0580   51.1910 N.am  553  GLN553     -0.0878
    136  N         11.7470   -4.7880   52.7060 N.am  554  GLN554     -0.1966
    137  CA        11.7420   -4.1310   53.9980 C.3   554  GLN554      0.1733
    138  C         10.9030   -4.9600   54.9950 C.2   554  GLN554      0.2616
    139  O          9.7100   -5.2910   54.7240 O.2   554  GLN554     -0.2715
    140  CB        11.1460   -2.7310   53.7950 C.3   554  GLN554      0.0408
    141  CG        10.9340   -1.8960   55.0510 C.3   554  GLN554      0.0908
    142  CD        10.0930   -0.6610   54.7780 C.2   554  GLN554      0.2608
    143  OE1        9.8620   -0.2780   53.6150 O.2   554  GLN554     -0.2717
    144  NE2        9.6280   -0.0190   55.8510 N.am  554  GLN554     -0.0878
    145  N         11.5110   -5.3100   56.1420 N.am  555  LEU555     -0.1963
    146  CA        10.7820   -6.1020   57.1500 C.3   555  LEU555      0.1728
    147  C          9.5240   -5.3880   57.6440 C.2   555  LEU555      0.2616
    148  O          9.5690   -4.2270   58.0050 O.2   555  LEU555     -0.2715
    149  CB        11.6770   -6.4270   58.3560 C.3   555  LEU555      0.0311
    150  CG        11.1180   -7.4630   59.3420 C.3   555  LEU555      0.0022
    151  CD1       10.9850   -8.8400   58.6970 C.3   555  LEU555      0.0001
    152  CD2       12.0720   -7.5690   60.5440 C.3   555  LEU555      0.0001
    153  N          8.3910   -6.0610   57.6480 N.am  556  TRP556     -0.1960
    154  CA         7.1740   -5.4460   58.1570 C.3   556  TRP556      0.1771
    155  C          6.2980   -6.6230   58.6520 C.2   556  TRP556      0.2620
    156  O          5.4440   -7.1900   57.9440 O.2   556  TRP556     -0.2715
    157  CB         6.5230   -4.5700   57.0570 C.3   556  TRP556      0.0590
    158  CG         5.3860   -3.6540   57.5380 C.ar  556  TRP556      0.0006
    159  CD1        4.1210   -4.0320   57.8810 C.ar  556  TRP556      0.0946
    160  CD2        5.4110   -2.2330   57.6270 C.ar  556  TRP556      0.0152
    161  NE1        3.3450   -2.9310   58.1630 N.ar  556  TRP556     -0.2442
    162  CE2        4.1100   -1.8110   58.0070 C.ar  556  TRP556      0.0810
    163  CE3        6.3970   -1.2670   57.4120 C.ar  556  TRP556      0.0012
    164  CZ2        3.7740   -0.4660   58.1720 C.ar  556  TRP556      0.0191
    165  CZ3        6.0640    0.0830   57.5730 C.ar  556  TRP556      0.0001
    166  CH2        4.7620    0.4670   57.9520 C.ar  556  TRP556      0.0015
    167  N          6.5940   -7.0220   59.8870 N.am  557  CYS557     -0.1954
    168  CA         5.9630   -8.1470   60.5720 C.3   557  CYS557      0.1843
    169  C          4.4680   -8.1260   60.8430 C.2   557  CYS557      0.2625
    170  O          3.9190   -7.1080   61.2530 O.2   557  CYS557     -0.2714
    171  CB         6.7130   -8.3870   61.8850 C.3   557  CYS557      0.0997
    172  SG         8.4450   -8.7730   61.6170 S.3   557  CYS557     -0.0797
    173  N          3.8240   -9.2720   60.6190 N.am  558  LEU558     -0.1977
    174  CA         2.3790   -9.4240   60.8430 C.3   558  LEU558      0.1596
    175  C          1.9980   -9.0950   62.2650 C.2   558  LEU558      0.2287
    176  O          2.7760   -9.2890   63.1820 O.2   558  LEU558     -0.2864
    177  CB         1.9360  -10.8610   60.5730 C.3   558  LEU558      0.0297
    178  CG         1.8240  -11.2570   59.0730 C.3   558  LEU558      0.0022
    179  CD1        1.6640  -12.7920   58.9240 C.3   558  LEU558      0.0001
    180  CD2        0.6360  -10.4850   58.4410 C.3   558  LEU558      0.0001
    181  N         -2.5980  -12.4030   58.9570 N.3   567  GLN567     -0.1245
    182  CA        -2.3520  -11.7690   57.6710 C.3   567  GLN567      0.1566
    183  C         -3.6790  -11.5460   56.9880 C.2   567  GLN567      0.2260
    184  O         -4.5780  -12.3840   57.0790 O.2   567  GLN567     -0.2867
    185  CB        -1.4930  -12.6660   56.7990 C.3   567  GLN567      0.0367
    186  CG        -1.5870  -12.3260   55.3380 C.3   567  GLN567      0.0905
    187  CD        -0.6070  -13.1210   54.5140 C.2   567  GLN567      0.2608
    188  OE1        0.6090  -12.8220   54.5190 O.2   567  GLN567     -0.2717
    189  NE2       -1.1190  -14.1650   53.7980 N.am  567  GLN567     -0.0878
    190  N          5.8260  -15.9990   62.1240 N.3   588  LEU588     -0.1231
    191  CA         5.7420  -14.7960   61.3080 C.3   588  LEU588      0.1693
    192  C          5.5460  -15.0420   59.8120 C.2   588  LEU588      0.2592
    193  O          5.2440  -14.0930   59.0540 O.2   588  LEU588     -0.2718
    194  CB         6.9990  -13.9670   61.4770 C.3   588  LEU588      0.0284
    195  CG         7.1370  -13.2580   62.8070 C.3   588  LEU588      0.0019
    196  CD1        8.6200  -12.8210   62.9170 C.3   588  LEU588      0.0001
    197  CD2        6.1940  -12.0530   62.9080 C.3   588  LEU588      0.0001
    198  N          5.7150  -16.3010   59.4130 N.am  589  VAL589     -0.1966
    199  CA         5.6210  -16.6600   58.0300 C.3   589  VAL589      0.1727
    200  C          4.3760  -17.4860   57.6820 C.2   589  VAL589      0.2616
    201  O          4.2410  -18.6510   58.0590 O.2   589  VAL589     -0.2715
    202  CB         6.9000  -17.4120   57.5850 C.3   589  VAL589      0.0290
    203  CG1        6.7690  -17.8390   56.1560 C.3   589  VAL589      0.0023
    204  CG2        8.1220  -16.5110   57.7280 C.3   589  VAL589      0.0023
    205  N          3.4370  -16.8820   56.9780 N.am  590  ILE590     -0.1977
    206  CA         2.2680  -17.6560   56.5940 C.3   590  ILE590      0.1596
    207  C          2.7280  -18.7130   55.5740 C.2   590  ILE590      0.2287
    208  O          3.6230  -18.4730   54.7740 O.2   590  ILE590     -0.2864
    209  CB         1.1960  -16.7980   55.9540 C.3   590  ILE590      0.0276
    210  CG1        0.7070  -15.7480   56.9620 C.3   590  ILE590      0.0022
    211  CG2        0.0690  -17.6950   55.4250 C.3   590  ILE590      0.0022
    212  CD1       -0.0850  -16.3060   58.2010 C.3   590  ILE590      0.0001
@<TRIPOS>BOND
     1    94    92    1
     2    49    50    1
     3    51    50    1
     4    51    52    2
     5    43    44    2
     6    43    42    1
     7    50    53    1
     8    92    91    2
     9    92    93    1
    10    91    90    1
    11    42    41    1
    12    42    45    1
    13    80    81    1
    14     1     2    1
    15    90    89    1
    16    53    54    1
    17    45    46    1
    18    83    82    2
    19    54    55    1
    20    81    82    1
    21    89    88    1
    22    82    84   am
    23     2     3    1
    24     2     5    1
    25    47    46    2
    26    46    48   am
    27     4     3    2
    28    88    85    1
    29    55    56    1
    30     5     6    1
    31    57    56    1
    32    34    33    1
    33    34    35    2
    34    84    85    1
    35    39    38   ar
    36    74    73    2
    37    85    86    1
    38    33    36    1
    39    33    32    1
    40    36    37    1
    41    38    37    1
    42    38    40   ar
    43    73    72    1
    44     6     7    1
    45    10     9    1
    46    86    87    2
    47    86    95   am
    48   100    99    1
    49    32    22   am
    50    23    22    2
    51     9    11    1
    52     9     8    2
    53    61    60    2
    54     7     8    1
    55    95    96    1
    56    22    21    1
    57    72    75    1
    58    72    71    1
    59    75    76    1
    60    12    13    1
    61   134   133    2
    62    99    96    1
    63    60    59    1
    64   109   110    1
    65   109   106    1
    66    58    59    1
    67    78    79    1
    68    78    77    1
    69    19    17   ar
    70    96    97    1
    71    18    17   ar
    72    17    16    1
    73   108   107    2
    74    21    20    1
    75    21    24    1
    76    76    77    1
    77   133   132    1
    78   133   135   am
    79   127   128    1
    80   131   132    1
    81   131   128    1
    82    13    16    1
    83    13    14    1
    84    15    14    2
    85    59    62    1
    86   128   129    1
    87   107   106    1
    88   106   105    1
    89   101    97   am
    90   101   102    1
    91   105   103   am
    92    97    98    2
    93    24    25    1
    94   118   116    1
    95    62    63    1
    96    69    68    2
    97   102   103    1
    98   103   104    2
    99   129   136   am
   100   129   130    2
   101    63    64    1
   102    63    65    1
   103   136   137    1
   104   116   115    1
   105    25    26   ar
   106    25    27   ar
   107    68    67    1
   108   111   112    1
   109   112   115    1
   110   112   113    1
   111    26    28   ar
   112   143   142    2
   113    27    29   ar
   114   140   137    1
   115   140   141    1
   116   189   187   am
   117   115   117    1
   118   137   138    1
   119    70    67    1
   120    67    66    1
   121   187   188    2
   122   187   186    1
   123   113   114    2
   124   139   138    2
   125   208   207    2
   126   142   141    1
   127   142   144   am
   128    28    30   ar
   129   138   145   am
   130    29    30   ar
   131   186   185    1
   132   211   209    1
   133   207   206    1
   134    30    31    1
   135   209   206    1
   136   209   210    1
   137   145   146    1
   138   203   202    1
   139   206   205    1
   140   185   182    1
   141   210   212    1
   142   205   200   am
   143   183   184    2
   144   183   182    1
   145   126   124    1
   146   157   158    1
   147   157   154    1
   148   146   147    1
   149   146   149    1
   150   163   165   ar
   151   163   160   ar
   152   119   120    1
   153   158   160   ar
   154   158   159   ar
   155   165   166   ar
   156   202   204    1
   157   202   199    1
   158   160   162   ar
   159   147   153   am
   160   147   148    2
   161   153   154    1
   162   182   181    1
   163   200   199    1
   164   200   201    2
   165   159   161   ar
   166   156   155    2
   167   166   164   ar
   168   162   161   ar
   169   162   164   ar
   170   199   198    1
   171   120   121    1
   172   120   123    1
   173   154   155    1
   174   124   123    1
   175   124   125    1
   176   149   150    1
   177   180   178    1
   178   155   167   am
   179   151   150    1
   180   179   178    1
   181   121   122    2
   182   193   192    2
   183   178   177    1
   184   150   152    1
   185   198   192   am
   186   192   191    1
   187   167   168    1
   188   168   169    1
   189   168   171    1
   190   177   174    1
   191   173   169   am
   192   173   174    1
   193   169   170    2
   194   174   175    1
   195   191   194    1
   196   191   190    1
   197   194   195    1
   198   172   171    1
   199   175   176    2
   200   195   197    1
   201   195   196    1
