@<TRIPOS>MOLECULE
tmp/2iocB00.pdb
 128 122 0 0 0
SMALL
GASTEIGER

@<TRIPOS>ATOM
      1  N         20.1720  -19.7270  -32.8420 N.3    13  ASP13      -0.1225
      2  CA        21.3000  -20.4190  -33.4370 C.3    13  ASP13       0.1805
      3  C         21.8880  -21.3400  -32.3900 C.2    13  ASP13       0.2598
      4  O         22.0080  -20.9770  -31.2150 O.2    13  ASP13      -0.2718
      5  CB        22.3880  -19.4760  -33.9400 C.3    13  ASP13       0.1424
      6  CG        23.4710  -20.2220  -34.7080 C.2    13  ASP13       0.3668
      7  OD1       23.1190  -20.9180  -35.6760 O.co2  13  ASP13      -0.2456
      8  OD2       24.6610  -20.1300  -34.3500 O.co2  13  ASP13      -0.2456
      9  N         22.2320  -22.5430  -32.8300 N.am   14  LEU14      -0.1966
     10  CA        22.8070  -23.5500  -31.9670 C.3    14  LEU14       0.1728
     11  C         24.1530  -23.9850  -32.5150 C.2    14  LEU14       0.2616
     12  O         24.3450  -24.0620  -33.7310 O.2    14  LEU14      -0.2715
     13  CB        21.9060  -24.7850  -31.9250 C.3    14  LEU14       0.0311
     14  CG        20.4350  -24.6030  -31.5680 C.3    14  LEU14       0.0022
     15  CD1       19.6650  -25.8660  -31.9120 C.3    14  LEU14       0.0001
     16  CD2       20.3160  -24.2680  -30.0950 C.3    14  LEU14       0.0001
     17  N         25.0940  -24.2220  -31.6140 N.am   15  GLU15      -0.1963
     18  CA        26.3870  -24.7540  -32.0040 C.3    15  GLU15       0.1733
     19  C         26.2560  -26.1400  -31.3790 C.2    15  GLU15       0.2616
     20  O         25.5050  -26.3060  -30.4130 O.2    15  GLU15      -0.2715
     21  CB        27.5450  -23.9640  -31.3900 C.3    15  GLU15       0.0429
     22  CG        27.6130  -22.5170  -31.8620 C.3    15  GLU15       0.1163
     23  CD        27.5740  -22.3800  -33.3830 C.2    15  GLU15       0.3649
     24  OE1       27.3340  -21.2630  -33.8720 O.co2  15  GLU15      -0.2457
     25  OE2       27.7800  -23.3830  -34.0940 O.co2  15  GLU15      -0.2457
     26  N         26.9340  -27.1390  -31.9290 N.am   16  ALA16      -0.1977
     27  CA        26.8150  -28.4890  -31.3950 C.3    16  ALA16       0.1597
     28  C         28.0390  -29.3490  -31.6890 C.2    16  ALA16       0.2287
     29  O         28.9910  -28.9040  -32.3280 O.2    16  ALA16      -0.2864
     30  CB        25.5560  -29.1520  -31.9570 C.3    16  ALA16       0.0319
     31  N         28.3880  -31.9340  -33.7120 N.3    18  GLY18      -0.1210
     32  CA        28.6350  -32.3110  -35.0930 C.3    18  GLY18       0.1956
     33  C         27.4480  -32.2190  -36.0310 C.2    18  GLY18       0.2611
     34  O         26.4870  -31.4860  -35.7830 O.2    18  GLY18      -0.2717
     35  N         27.5250  -32.9740  -37.1220 N.am   19  LEU19      -0.1979
     36  CA        26.4810  -32.9990  -38.1350 C.3    19  LEU19       0.1596
     37  C         25.3990  -34.0300  -37.8020 C.2    19  LEU19       0.2287
     38  O         25.6340  -34.9600  -37.0390 O.2    19  LEU19      -0.2864
     39  CB        27.1200  -33.2650  -39.5030 C.3    19  LEU19       0.0297
     40  CG        28.1180  -32.1630  -39.8940 C.3    19  LEU19       0.0022
     41  CD1       28.9000  -32.5530  -41.1370 C.3    19  LEU19       0.0001
     42  CD2       27.3640  -30.8580  -40.1230 C.3    19  LEU19       0.0001
     43  N         33.2080  -33.2480  -32.9930 N.3    69  SER69      -0.1217
     44  CA        34.0260  -33.6910  -34.1080 C.3    69  SER69       0.1889
     45  C         35.0290  -32.5620  -34.3140 C.2    69  SER69       0.2288
     46  O         34.7010  -31.3970  -34.0940 O.2    69  SER69      -0.2866
     47  CB        33.1650  -33.8710  -35.3580 C.3    69  SER69       0.2089
     48  OG        32.4680  -32.6770  -35.6680 O.3    69  SER69      -0.2183
     49  N         36.0320  -30.9610  -36.8260 N.3    71  GLY71      -0.1210
     50  CA        35.5120  -29.8990  -37.6660 C.3    71  GLY71       0.1956
     51  C         34.6250  -28.9490  -36.8850 C.2    71  GLY71       0.2611
     52  O         34.6790  -27.7320  -37.0850 O.2    71  GLY71      -0.2717
     53  N         33.8050  -29.5060  -35.9940 N.am   72  ALA72      -0.1979
     54  CA        32.8990  -28.7050  -35.1740 C.3    72  ALA72       0.1597
     55  C         33.6780  -27.8570  -34.1680 C.2    72  ALA72       0.2287
     56  O         33.4810  -26.6410  -34.0770 O.2    72  ALA72      -0.2864
     57  CB        31.9200  -29.6130  -34.4450 C.3    72  ALA72       0.0319
     58  N         35.6390  -24.7950  -35.7930 N.3    75  ILE75      -0.1231
     59  CA        34.9430  -23.5770  -36.1880 C.3    75  ILE75       0.1692
     60  C         34.1790  -22.8920  -35.0550 C.2    75  ILE75       0.2592
     61  O         34.1380  -21.6680  -34.9980 O.2    75  ILE75      -0.2718
     62  CB        33.9680  -23.8370  -37.3630 C.3    75  ILE75       0.0266
     63  CG1       32.7930  -24.6960  -36.9030 C.3    75  ILE75       0.0019
     64  CG2       34.7090  -24.5280  -38.5050 C.3    75  ILE75       0.0020
     65  CD1       31.7270  -24.8740  -37.9630 C.3    75  ILE75       0.0001
     66  N         33.5870  -23.6760  -34.1570 N.am   76  THR76      -0.1953
     67  CA        32.8200  -23.1240  -33.0340 C.3    76  THR76       0.1897
     68  C         33.7120  -22.7160  -31.8610 C.2    76  THR76       0.2313
     69  O         33.2800  -21.9820  -30.9660 O.2    76  THR76      -0.2863
     70  CB        31.7950  -24.1420  -32.4890 C.3    76  THR76       0.1794
     71  OG1       32.4920  -25.2080  -31.8310 O.3    76  THR76      -0.2208
     72  CG2       30.9470  -24.7160  -33.6190 C.3    76  THR76       0.0378
     73  N         18.6540  -19.9150  -39.3980 N.3   115  HIS115     -0.1226
     74  CA        19.1680  -20.1480  -40.7440 C.3   115  HIS115      0.1752
     75  C         19.4920  -21.6260  -40.9080 C.2   115  HIS115      0.2596
     76  O         20.4800  -22.1190  -40.3660 O.2   115  HIS115     -0.2718
     77  CB        20.4100  -19.2910  -40.9930 C.3   115  HIS115      0.0759
     78  CG        20.5490  -18.8490  -42.4150 C.ar  115  HIS115      0.0818
     79  ND1       21.5200  -19.3430  -43.2590 N.ar  115  HIS115     -0.2268
     80  CD2       19.8020  -17.9970  -43.1570 C.ar  115  HIS115      0.1154
     81  CE1       21.3640  -18.8170  -44.4600 C.ar  115  HIS115      0.1986
     82  NE2       20.3280  -17.9980  -44.4270 N.ar  115  HIS115     -0.2212
     83  N         18.6460  -22.3080  -41.6770 N.am  116  ASN116     -0.1974
     84  CA        18.7200  -23.7460  -41.9180 C.3   116  ASN116      0.1688
     85  C         18.0750  -24.4210  -40.7130 C.2   116  ASN116      0.2292
     86  O         18.3600  -25.5800  -40.3960 O.2   116  ASN116     -0.2864
     87  CB        20.1610  -24.2440  -42.0840 C.3   116  ASN116      0.1181
     88  CG        20.2260  -25.7420  -42.3860 C.2   116  ASN116      0.2629
     89  OD1       19.4400  -26.2610  -43.1800 O.2   116  ASN116     -0.2716
     90  ND2       21.1670  -26.4370  -41.7580 N.am  116  ASN116     -0.0877
     91  N         18.2210  -28.2930  -39.4270 N.3   120  TYR120     -0.1227
     92  CA        19.1580  -28.4920  -38.3280 C.3   120  TYR120      0.1736
     93  C         18.6930  -28.0830  -36.9260 C.2   120  TYR120      0.2595
     94  O         18.3690  -28.9390  -36.1030 O.2   120  TYR120     -0.2718
     95  CB        20.4820  -27.7820  -38.6570 C.3   120  TYR120      0.0548
     96  CG        21.6310  -28.1920  -37.7640 C.ar  120  TYR120     -0.0200
     97  CD1       22.1480  -29.4840  -37.8160 C.ar  120  TYR120     -0.0009
     98  CD2       22.1920  -27.2940  -36.8570 C.ar  120  TYR120     -0.0009
     99  CE1       23.1980  -29.8750  -36.9910 C.ar  120  TYR120      0.0417
    100  CE2       23.2460  -27.6760  -36.0200 C.ar  120  TYR120      0.0417
    101  CZ        23.7460  -28.9670  -36.0950 C.ar  120  TYR120      0.1957
    102  OH        24.8060  -29.3490  -35.3040 O.3   120  TYR120     -0.2866
    103  N         18.6630  -26.7780  -36.6620 N.am  121  ASP121     -0.1974
    104  CA        18.2880  -26.2490  -35.3480 C.3   121  ASP121      0.1709
    105  C         16.9620  -26.7260  -34.7490 C.2   121  ASP121      0.2293
    106  O         16.9280  -27.2000  -33.6170 O.2   121  ASP121     -0.2864
    107  CB        18.2890  -24.7130  -35.3780 C.3   121  ASP121      0.1436
    108  CG        19.5650  -24.1420  -35.9640 C.2   121  ASP121      0.3671
    109  OD1       19.7750  -24.3060  -37.1820 O.co2 121  ASP121     -0.2456
    110  OD2       20.3600  -23.5370  -35.2120 O.co2 121  ASP121     -0.2456
    111  N         30.1990  -18.5800  -36.4790 N.3   178  HIS178     -0.1241
    112  CA        30.3100  -19.8790  -35.8450 C.3   178  HIS178      0.1621
    113  C         30.3010  -19.8780  -34.3270 C.2   178  HIS178      0.2264
    114  O         30.8600  -20.7640  -33.6830 O.2   178  HIS178     -0.2867
    115  CB        31.5220  -20.6120  -36.4090 C.3   178  HIS178      0.0745
    116  CG        31.4370  -20.8180  -37.8880 C.ar  178  HIS178      0.0817
    117  ND1       30.3940  -21.4990  -38.4800 N.ar  178  HIS178     -0.2268
    118  CD2       32.2290  -20.3890  -38.8980 C.ar  178  HIS178      0.1154
    119  CE1       30.5480  -21.4780  -39.7920 C.ar  178  HIS178      0.1986
    120  NE2       31.6530  -20.8110  -40.0720 N.ar  178  HIS178     -0.2212
    121  N         26.4220  -15.7530  -34.7590 N.3   183  ASP183     -0.1239
    122  CA        25.5700  -16.1010  -35.8900 C.3   183  ASP183      0.1674
    123  C         24.1500  -15.5490  -35.7470 C.2   183  ASP183      0.2266
    124  O         23.4890  -15.2530  -36.7410 O.2   183  ASP183     -0.2867
    125  CB        25.5460  -17.6200  -36.0890 C.3   183  ASP183      0.1410
    126  CG        26.8960  -18.1690  -36.5370 C.2   183  ASP183      0.3668
    127  OD1       27.6850  -17.3990  -37.1350 O.co2 183  ASP183     -0.2456
    128  OD2       27.1640  -19.3680  -36.3030 O.co2 183  ASP183     -0.2456
@<TRIPOS>BOND
     1    81    82   ar
     2    81    79   ar
     3    82    80   ar
     4    79    78   ar
     5    89    88    2
     6    80    78   ar
     7    78    77    1
     8    88    87    1
     9    88    90   am
    10    87    84    1
    11    84    83    1
    12    84    85    1
    13    83    75   am
    14    41    40    1
    15    77    74    1
    16    75    74    1
    17    75    76    2
    18    74    73    1
    19    85    86    2
    20    42    40    1
    21   120   119   ar
    22   120   118   ar
    23    40    39    1
    24   119   117   ar
    25    39    36    1
    26    91    92    1
    27   118   116   ar
    28    95    92    1
    29    95    96    1
    30    64    62    1
    31   117   116   ar
    32    92    93    1
    33    36    37    1
    34    36    35    1
    35    65    63    1
    36   116   115    1
    37    97    96   ar
    38    97    99   ar
    39    37    38    2
    40    96    98   ar
    41    50    51    1
    42    50    49    1
    43    62    63    1
    44    62    59    1
    45   109   108   ar
    46   127   126   ar
    47    35    33   am
    48    52    51    2
    49    99   101   ar
    50    93   103   am
    51    93    94    2
    52    51    53   am
    53    98   100   ar
    54   124   123    2
    55   103   104    1
    56   126   128   ar
    57   126   125    1
    58   111   112    1
    59   115   112    1
    60    59    58    1
    61    59    60    1
    62   101   100   ar
    63   101   102    1
    64   125   122    1
    65    33    34    2
    66    33    32    1
    67    53    54    1
    68   108   107    1
    69   108   110   ar
    70   122   123    1
    71   122   121    1
    72   112   113    1
    73     7     6   ar
    74    48    47    1
    75   107   104    1
    76    47    44    1
    77   104   105    1
    78    54    57    1
    79    54    55    1
    80    32    31    1
    81    60    61    2
    82    60    66   am
    83   105   106    2
    84     6     8   ar
    85     6     5    1
    86   113   114    2
    87    45    44    1
    88    45    46    2
    89    55    56    2
    90    66    67    1
    91    44    43    1
    92    25    23   ar
    93     5     2    1
    94    24    23   ar
    95    12    11    2
    96    72    70    1
    97     2     1    1
    98     2     3    1
    99    23    22    1
   100    67    70    1
   101    67    68    1
   102     9     3   am
   103     9    10    1
   104    11    10    1
   105    11    17   am
   106    70    71    1
   107     3     4    2
   108    29    28    2
   109    18    17    1
   110    18    21    1
   111    18    19    1
   112    10    13    1
   113    30    27    1
   114    26    27    1
   115    26    19   am
   116    13    14    1
   117    15    14    1
   118    22    21    1
   119    68    69    2
   120    28    27    1
   121    14    16    1
   122    19    20    2
