@<TRIPOS>MOLECULE
tmp/2iogA00.pdb
 245 233 0 0 0
SMALL
GASTEIGER

@<TRIPOS>ATOM
      1  N         35.7410   -7.1910   30.9320 N.3    35  MET35      -0.1245
      2  CA        35.8540   -6.7130   29.5440 C.3    35  MET35       0.1570
      3  C         35.2020   -7.6910   28.5720 C.2    35  MET35       0.2261
      4  O         34.6950   -7.2730   27.5220 O.2    35  MET35      -0.2867
      5  CB        37.3090   -6.5020   29.1430 C.3    35  MET35       0.0387
      6  CG        38.1070   -5.5550   30.0300 C.3    35  MET35       0.0595
      7  SD        39.8830   -5.7260   29.7400 S.3    35  MET35      -0.1393
      8  CE        39.8760   -6.2040   28.0110 C.3    35  MET35       0.0692
      9  N         31.3380   -7.0220   28.9750 N.3    38  LEU38      -0.1231
     10  CA        30.9660   -5.8140   28.2530 C.3    38  LEU38       0.1693
     11  C         31.0440   -6.0180   26.7440 C.2    38  LEU38       0.2592
     12  O         30.1540   -5.6180   26.0110 O.2    38  LEU38      -0.2718
     13  CB        31.8740   -4.6540   28.6590 C.3    38  LEU38       0.0284
     14  CG        31.7930   -4.1800   30.1170 C.3    38  LEU38       0.0019
     15  CD1       32.1590   -2.7100   30.1770 C.3    38  LEU38       0.0001
     16  CD2       30.4270   -4.4290   30.7440 C.3    38  LEU38       0.0001
     17  N         32.1340   -6.6390   26.2930 N.am   39  THR39      -0.1953
     18  CA        32.3350   -6.8600   24.8690 C.3    39  THR39       0.1897
     19  C         31.2130   -7.7110   24.2970 C.2    39  THR39       0.2313
     20  O         30.6500   -7.4390   23.2490 O.2    39  THR39      -0.2863
     21  CB        33.6630   -7.5900   24.6030 C.3    39  THR39       0.1794
     22  OG1       34.7290   -6.7270   24.9670 O.3    39  THR39      -0.2208
     23  CG2       33.8090   -7.8940   23.1190 C.3    39  THR39       0.0378
     24  N         28.1900   -8.2950   25.5940 N.3    41  LEU41      -0.1231
     25  CA        26.8880   -7.6210   25.6380 C.3    41  LEU41       0.1693
     26  C         26.8140   -6.5670   24.5460 C.2    41  LEU41       0.2592
     27  O         25.8190   -6.4590   23.8060 O.2    41  LEU41      -0.2718
     28  CB        26.6800   -7.0040   27.0230 C.3    41  LEU41       0.0284
     29  CG        25.4760   -6.0960   27.2230 C.3    41  LEU41       0.0019
     30  CD1       24.1770   -6.8760   27.1280 C.3    41  LEU41       0.0001
     31  CD2       25.5270   -5.3680   28.5760 C.3    41  LEU41       0.0001
     32  N         27.8930   -5.7820   24.4280 N.am   42  ALA42      -0.1966
     33  CA        27.8420   -4.6950   23.4360 C.3    42  ALA42       0.1728
     34  C         27.7270   -5.2290   22.0170 C.2    42  ALA42       0.2616
     35  O         27.0020   -4.6520   21.1980 O.2    42  ALA42      -0.2715
     36  CB        29.0720   -3.8120   23.5560 C.3    42  ALA42       0.0334
     37  N         28.4560   -6.3190   21.7270 N.am   43  ASP43      -0.1971
     38  CA        28.3320   -6.8850   20.3870 C.3    43  ASP43       0.1709
     39  C         26.8950   -7.3310   20.1230 C.2    43  ASP43       0.2293
     40  O         26.3880   -7.2180   19.0230 O.2    43  ASP43      -0.2864
     41  CB        29.2860   -8.0470   20.1670 C.3    43  ASP43       0.1436
     42  CG        30.7140   -7.5770   20.0030 C.2    43  ASP43       0.3671
     43  OD1       30.9240   -6.4160   19.6030 O.co2  43  ASP43      -0.2456
     44  OD2       31.5930   -8.4080   20.3070 O.co2  43  ASP43      -0.2456
     45  N         24.0450   -6.1230   21.5100 N.3    45  GLU45      -0.1231
     46  CA        23.1890   -4.9520   21.4470 C.3    45  GLU45       0.1699
     47  C         23.3190   -4.2450   20.0930 C.2    45  GLU45       0.2592
     48  O         22.3910   -3.6270   19.5920 O.2    45  GLU45      -0.2718
     49  CB        23.5370   -3.9620   22.5510 C.3    45  GLU45       0.0402
     50  CG        23.1600   -4.4670   23.9630 C.3    45  GLU45       0.1161
     51  CD        23.5520   -3.3960   24.9620 C.2    45  GLU45       0.3649
     52  OE1       22.7240   -2.5200   25.2880 O.co2  45  GLU45      -0.2457
     53  OE2       24.7060   -3.4180   25.4150 O.co2  45  GLU45      -0.2457
     54  N         24.5180   -4.3320   19.5190 N.am   46  LEU46      -0.1980
     55  CA        24.7600   -3.6970   18.2230 C.3    46  LEU46       0.1596
     56  C         23.8120   -4.2430   17.1740 C.2    46  LEU46       0.2287
     57  O         23.2810   -3.4960   16.3730 O.2    46  LEU46      -0.2864
     58  CB        26.2140   -3.9010   17.7870 C.3    46  LEU46       0.0297
     59  CG        26.6730   -3.1350   16.5410 C.3    46  LEU46       0.0022
     60  CD1       26.6800   -1.6360   16.8000 C.3    46  LEU46       0.0001
     61  CD2       28.0260   -3.6680   16.0940 C.3    46  LEU46       0.0001
     62  N         27.5610    4.6940   17.7430 N.3    75  TRP75      -0.1227
     63  CA        27.1490    3.4600   18.3980 C.3    75  TRP75       0.1737
     64  C         27.4740    3.4750   19.8860 C.2    75  TRP75       0.2595
     65  O         26.6400    2.9870   20.6470 O.2    75  TRP75      -0.2718
     66  CB        27.7310    2.2050   17.7220 C.3    75  TRP75       0.0564
     67  CG        29.2130    2.0770   17.8920 C.ar   75  TRP75       0.0003
     68  CD1       30.1740    2.5560   17.0680 C.ar   75  TRP75       0.0946
     69  CD2       29.8940    1.4330   18.9680 C.ar   75  TRP75       0.0152
     70  NE1       31.4240    2.2500   17.5520 N.ar   75  TRP75      -0.2442
     71  CE2       31.2710    1.5590   18.7250 C.ar   75  TRP75       0.0810
     72  CE3       29.4540    0.7660   20.1110 C.ar   75  TRP75       0.0012
     73  CZ2       32.2150    1.0290   19.5970 C.ar   75  TRP75       0.0191
     74  CZ3       30.4100    0.2560   20.9540 C.ar   75  TRP75       0.0001
     75  CH2       31.7750    0.3760   20.7210 C.ar   75  TRP75       0.0015
     76  N         28.6020    3.9960   20.3490 N.am   76  LEU76      -0.1980
     77  CA        28.8290    3.8710   21.7880 C.3    76  LEU76       0.1596
     78  C         28.0240    4.8830   22.5820 C.2    76  LEU76       0.2287
     79  O         27.5590    4.6570   23.7170 O.2    76  LEU76      -0.2864
     80  CB        30.3340    4.0100   22.0510 C.3    76  LEU76       0.0297
     81  CG        30.7670    3.8630   23.5030 C.3    76  LEU76       0.0022
     82  CD1       30.3810    2.5240   24.0770 C.3    76  LEU76       0.0001
     83  CD2       32.2780    4.0230   23.5550 C.3    76  LEU76       0.0001
     84  N         24.6570    3.1530   22.9360 N.3    79  LEU79      -0.1231
     85  CA        24.6840    2.1770   24.0380 C.3    79  LEU79       0.1693
     86  C         24.6830    2.8550   25.4090 C.2    79  LEU79       0.2591
     87  O         24.0090    2.3950   26.3300 O.2    79  LEU79      -0.2718
     88  CB        25.9240    1.2690   23.9680 C.3    79  LEU79       0.0284
     89  CG        25.9520    0.3370   22.7530 C.3    79  LEU79       0.0019
     90  CD1       27.2070   -0.5310   22.8110 C.3    79  LEU79       0.0001
     91  CD2       24.6600   -0.4710   22.6970 C.3    79  LEU79       0.0001
     92  N         25.4490    3.9320   25.5650 N.am   80  MET80      -0.1979
     93  CA        25.5820    4.5940   26.8580 C.3    80  MET80       0.1605
     94  C         24.2900    5.3100   27.2430 C.2    80  MET80       0.2287
     95  O         23.8440    5.2690   28.4000 O.2    80  MET80      -0.2864
     96  CB        26.7490    5.5850   26.8660 C.3    80  MET80       0.0413
     97  CG        28.1130    4.9150   26.8540 C.3    80  MET80       0.0598
     98  SD        29.3880    6.1940   26.6770 S.3    80  MET80      -0.1393
     99  CE        30.8230    5.1960   27.1260 C.3    80  MET80       0.0692
    100  N         22.1410    2.7550   28.5870 N.3    83  LEU83      -0.1245
    101  CA        22.5460    2.3080   29.9220 C.3    83  LEU83       0.1561
    102  C         22.1760    3.2920   31.0140 C.2    83  LEU83       0.2260
    103  O         21.6470    2.9300   32.0710 O.2    83  LEU83      -0.2867
    104  CB        24.0620    2.0400   29.9630 C.3    83  LEU83       0.0270
    105  CG        24.7300    1.6830   31.2850 C.3    83  LEU83       0.0019
    106  CD1       24.3720    0.2770   31.7550 C.3    83  LEU83       0.0001
    107  CD2       26.2390    1.7970   31.1410 C.3    83  LEU83       0.0001
    108  N         18.4270    2.9750   31.7170 N.3    86  ARG86      -0.1245
    109  CA        17.8680    1.8850   32.5370 C.3    86  ARG86       0.1563
    110  C         18.4810    1.8810   33.9400 C.2    86  ARG86       0.2260
    111  O         17.9310    1.2690   34.8380 O.2    86  ARG86      -0.2867
    112  CB        17.9800    0.5370   31.8400 C.3    86  ARG86       0.0307
    113  CG        19.1790    0.2630   30.9910 C.3    86  ARG86       0.0489
    114  CD        19.1710   -1.1530   30.4040 C.3    86  ARG86       0.2205
    115  NE        20.5710   -1.5630   30.2020 N.pl3  86  ARG86      -0.0865
    116  CZ        21.2700   -1.2450   29.1150 C.cat  86  ARG86       0.5346
    117  NH1       20.7160   -0.5210   28.1420 N.pl3  86  ARG86       0.1354
    118  NH2       22.5350   -1.6400   28.9740 N.pl3  86  ARG86       0.1354
    119  N         23.7970   -2.8090   33.4970 N.3    96  PHE96      -0.1241
    120  CA        24.2660   -3.2340   32.1850 C.3    96  PHE96       0.1605
    121  C         23.2200   -4.1580   31.5900 C.2    96  PHE96       0.2264
    122  O         22.9360   -4.1010   30.4130 O.2    96  PHE96      -0.2867
    123  CB        25.6370   -3.9160   32.2660 C.3    96  PHE96       0.0534
    124  CG        26.7440   -2.8640   32.3090 C.ar   96  PHE96      -0.0203
    125  CD1       27.1900   -2.2310   31.1690 C.ar   96  PHE96      -0.0042
    126  CD2       27.3440   -2.4990   33.5070 C.ar   96  PHE96      -0.0042
    127  CE1       28.1780   -1.2630   31.2140 C.ar   96  PHE96      -0.0003
    128  CE2       28.3250   -1.5310   33.5650 C.ar   96  PHE96      -0.0003
    129  CZ        28.7630   -0.9080   32.3990 C.ar   96  PHE96      -0.0000
    130  N         39.5860   -2.9710   35.8650 N.3   110  VAL110     -0.1231
    131  CA        40.2250   -2.6310   34.5900 C.3   110  VAL110      0.1692
    132  C         40.7150   -1.1880   34.6110 C.2   110  VAL110      0.2591
    133  O         40.0300   -0.2390   34.9780 O.2   110  VAL110     -0.2718
    134  CB        39.3310   -2.8830   33.3640 C.3   110  VAL110      0.0266
    135  CG1       40.1030   -2.5710   32.0990 C.3   110  VAL110      0.0020
    136  CG2       38.8660   -4.3290   33.3440 C.3   110  VAL110      0.0020
    137  N         41.9670   -1.0980   34.1780 N.am  111  GLU111     -0.1979
    138  CA        42.6280    0.1940   34.0470 C.3   111  GLU111      0.1602
    139  C         41.7490    1.1660   33.2650 C.2   111  GLU111      0.2287
    140  O         41.4020    0.8060   32.1250 O.2   111  GLU111     -0.2864
    141  CB        43.9540   -0.0320   33.3520 C.3   111  GLU111      0.0415
    142  CG        44.8480    1.1800   33.1570 C.3   111  GLU111      0.1163
    143  CD        46.1840    0.6630   32.6270 C.2   111  GLU111      0.3649
    144  OE1       46.4580    0.8380   31.4210 O.co2 111  GLU111     -0.2457
    145  OE2       46.9150    0.0680   33.4470 O.co2 111  GLU111     -0.2457
    146  N         38.7040    1.9000   33.6360 N.3   113  MET113     -0.1245
    147  CA        37.2670    1.6800   33.5900 C.3   113  MET113      0.1570
    148  C         36.5110    2.4120   34.6720 C.2   113  MET113      0.2261
    149  O         35.3780    2.8290   34.4400 O.2   113  MET113     -0.2867
    150  CB        37.0120    0.1550   33.6810 C.3   113  MET113      0.0387
    151  CG        35.5810   -0.1790   33.2510 C.3   113  MET113      0.0595
    152  SD        35.3990   -1.9410   32.9300 S.3   113  MET113     -0.1393
    153  CE        34.5650   -2.4760   34.4170 C.3   113  MET113      0.0692
    154  N         35.1650    5.8530   33.7330 N.3   116  ILE116     -0.1231
    155  CA        33.9910    5.8630   32.8440 C.3   116  ILE116      0.1692
    156  C         32.7490    5.4300   33.5940 C.2   116  ILE116      0.2592
    157  O         31.6710    6.0220   33.4350 O.2   116  ILE116     -0.2718
    158  CB        34.2350    4.9480   31.6390 C.3   116  ILE116      0.0266
    159  CG1       35.4610    5.3570   30.7920 C.3   116  ILE116      0.0019
    160  CG2       33.0050    4.8510   30.7640 C.3   116  ILE116      0.0020
    161  CD1       35.7340    4.4100   29.6400 C.3   116  ILE116      0.0001
    162  N         32.8560    4.4150   34.4610 N.am  117  PHE117     -0.1976
    163  CA        31.7490    4.0960   35.3650 C.3   117  PHE117      0.1639
    164  C         31.3190    5.3440   36.1450 C.2   117  PHE117      0.2290
    165  O         30.1260    5.6020   36.2910 O.2   117  PHE117     -0.2864
    166  CB        32.0770    2.9880   36.3750 C.3   117  PHE117      0.0560
    167  CG        31.9170    1.5550   35.9040 C.ar  117  PHE117     -0.0200
    168  CD1       31.5580    0.5590   36.8020 C.ar  117  PHE117     -0.0042
    169  CD2       32.1180    1.1870   34.5770 C.ar  117  PHE117     -0.0042
    170  CE1       31.4090   -0.7650   36.4180 C.ar  117  PHE117     -0.0003
    171  CE2       32.0020   -0.1300   34.1640 C.ar  117  PHE117     -0.0003
    172  CZ        31.6490   -1.0940   35.1000 C.ar  117  PHE117     -0.0000
    173  N         29.3090    7.6520   33.8630 N.3   120  LEU120     -0.1245
    174  CA        27.9830    7.1080   33.5660 C.3   120  LEU120      0.1561
    175  C         27.0460    7.2320   34.7550 C.2   120  LEU120      0.2260
    176  O         25.8910    7.6630   34.6920 O.2   120  LEU120     -0.2867
    177  CB        28.1420    5.6480   33.1330 C.3   120  LEU120      0.0270
    178  CG        28.8500    5.4700   31.7840 C.3   120  LEU120      0.0019
    179  CD1       29.4720    4.0850   31.6760 C.3   120  LEU120      0.0001
    180  CD2       27.9060    5.7250   30.6110 C.3   120  LEU120      0.0001
    181  N         35.7430    6.3880   26.2080 N.3   213  GLY213     -0.1225
    182  CA        35.7490    4.9140   26.1630 C.3   213  GLY213      0.1811
    183  C         36.3380    4.3830   24.8740 C.2   213  GLY213      0.2280
    184  O         36.9570    3.3050   24.8450 O.2   213  GLY213     -0.2866
    185  N         40.1260    3.8970   25.1770 N.3   216  HIS216     -0.1226
    186  CA        40.5360    2.6730   25.8700 C.3   216  HIS216      0.1752
    187  C         40.1730    1.4500   25.0420 C.2   216  HIS216      0.2596
    188  O         40.6660    0.3390   25.1740 O.2   216  HIS216     -0.2718
    189  CB        39.9050    2.5500   27.2580 C.3   216  HIS216      0.0759
    190  CG        40.2790    3.6240   28.2410 C.ar  216  HIS216      0.0818
    191  ND1       41.4970    3.6750   28.8810 N.ar  216  HIS216     -0.2268
    192  CD2       39.5930    4.7040   28.6930 C.ar  216  HIS216      0.1154
    193  CE1       41.5540    4.7210   29.6790 C.ar  216  HIS216      0.1986
    194  NE2       40.4040    5.3660   29.5850 N.ar  216  HIS216     -0.2212
    195  N         39.2600    1.6430   24.0980 N.am  217  LEU217     -0.1966
    196  CA        38.8560    0.5580   23.2270 C.3   217  LEU217      0.1728
    197  C         39.9160    0.1880   22.2110 C.2   217  LEU217      0.2616
    198  O         40.2010   -0.9880   21.9910 O.2   217  LEU217     -0.2715
    199  CB        37.5820    0.9910   22.4870 C.3   217  LEU217      0.0311
    200  CG        36.3540    0.1800   22.9020 C.3   217  LEU217      0.0022
    201  CD1       35.2570    0.3000   21.8660 C.3   217  LEU217      0.0001
    202  CD2       36.8060   -1.2560   23.1240 C.3   217  LEU217      0.0001
    203  N         40.5060    1.2030   21.5780 N.am  218  TYR218     -0.1974
    204  CA        41.3790    0.8530   20.4550 C.3   218  TYR218      0.1639
    205  C         42.8280    0.7250   20.8990 C.2   218  TYR218      0.2290
    206  O         43.7550    1.1560   20.2270 O.2   218  TYR218     -0.2864
    207  CB        41.1650    1.8650   19.3220 C.3   218  TYR218      0.0560
    208  CG        39.7060    1.7910   18.8810 C.ar  218  TYR218     -0.0198
    209  CD1       39.0790    2.8770   18.2970 C.ar  218  TYR218     -0.0009
    210  CD2       38.9880    0.6140   19.0710 C.ar  218  TYR218     -0.0009
    211  CE1       37.7590    2.7780   17.9090 C.ar  218  TYR218      0.0417
    212  CE2       37.6600    0.5150   18.6830 C.ar  218  TYR218      0.0417
    213  CZ        37.0530    1.6090   18.1030 C.ar  218  TYR218      0.1957
    214  OH        35.7370    1.5300   17.7150 O.3   218  TYR218     -0.2866
    215  N         42.7550   -1.6920   24.2530 N.3   220  MET220     -0.1245
    216  CA        42.2130   -2.8450   24.9620 C.3   220  MET220      0.1570
    217  C         41.5630   -3.8220   23.9720 C.2   220  MET220      0.2261
    218  O         40.8490   -3.3510   23.0850 O.2   220  MET220     -0.2867
    219  CB        41.2180   -2.4150   26.0370 C.3   220  MET220      0.0387
    220  CG        41.7690   -1.4240   27.0510 C.3   220  MET220      0.0595
    221  SD        42.1610   -2.1590   28.6460 S.3   220  MET220     -0.1393
    222  CE        42.3000   -0.7130   29.6940 C.3   220  MET220      0.0692
    223  N         39.1390   -6.7860   22.8160 N.3   222  CYS222     -0.1221
    224  CA        37.8320   -6.6170   22.2230 C.3   222  CYS222      0.1808
    225  C         37.6950   -7.1500   20.7990 C.2   222  CYS222      0.2601
    226  O         38.3170   -8.1370   20.4190 O.2   222  CYS222     -0.2717
    227  CB        37.4860   -5.1180   22.2010 C.3   222  CYS222      0.0970
    228  SG        36.0960   -4.6850   23.2690 S.3   222  CYS222     -0.0800
    229  N         36.8540   -6.4420   20.0570 N.am  223  LYS223     -0.1979
    230  CA        36.6010   -6.5950   18.6360 C.3   223  LYS223      0.1596
    231  C         37.2430   -5.4300   17.8750 C.2   223  LYS223      0.2287
    232  O         36.8320   -4.2800   18.0520 O.2   223  LYS223     -0.2864
    233  CB        35.1020   -6.6720   18.3570 C.3   223  LYS223      0.0298
    234  CG        34.6350   -5.9180   17.1230 C.3   223  LYS223      0.0038
    235  CD        33.4490   -6.6090   16.4670 C.3   223  LYS223      0.0206
    236  CE        33.8880   -7.7880   15.6140 C.3   223  LYS223      0.1093
    237  NZ        33.7400   -9.0880   16.3310 N.3   223  LYS223     -0.1314
    238  N         34.8770   -2.0730   11.5810 N.3   228  LEU228     -0.1245
    239  CA        33.5080   -1.8670   12.0170 C.3   228  LEU228      0.1561
    240  C         32.6700   -1.4010   10.8330 C.2   228  LEU228      0.2260
    241  O         31.5100   -1.8020   10.7150 O.2   228  LEU228     -0.2867
    242  CB        33.4260   -0.8340   13.1480 C.3   228  LEU228      0.0270
    243  CG        31.9980   -0.5490   13.6260 C.3   228  LEU228      0.0019
    244  CD1       31.2630   -1.8690   13.8340 C.3   228  LEU228      0.0001
    245  CD2       32.0150    0.2960   14.8930 C.3   228  LEU228      0.0001
@<TRIPOS>BOND
     1   241   240    2
     2   240   239    1
     3   238   239    1
     4   239   242    1
     5   242   243    1
     6   243   244    1
     7   243   245    1
     8   236   237    1
     9   236   235    1
    10    61    59    1
    11    57    56    2
    12   235   234    1
    13    59    60    1
    14    59    58    1
    15    68    70   ar
    16    68    67   ar
    17   234   233    1
    18    56    55    1
    19    70    71   ar
    20   214   213    1
    21    66    67    1
    22    66    63    1
    23    62    63    1
    24    58    55    1
    25   231   232    2
    26   231   230    1
    27    67    69   ar
    28   211   213   ar
    29   211   209   ar
    30   213   212   ar
    31    55    54    1
    32   209   208   ar
    33   233   230    1
    34    63    64    1
    35   230   229    1
    36   212   210   ar
    37    71    69   ar
    38    71    73   ar
    39   208   210   ar
    40   208   207    1
    41    69    72   ar
    42    40    39    2
    43   207   204    1
    44    54    47   am
    45    48    47    2
    46    73    75   ar
    47    43    42   ar
    48    64    76   am
    49    64    65    2
    50    42    41    1
    51    42    44   ar
    52   229   225   am
    53    47    46    1
    54    72    74   ar
    55    39    38    1
    56    41    38    1
    57   206   205    2
    58    76    77    1
    59    38    37    1
    60   226   225    2
    61   204   205    1
    62   204   203    1
    63    75    74   ar
    64   225   224    1
    65    35    34    2
    66    46    45    1
    67    46    49    1
    68   203   197   am
    69    37    34   am
    70    77    80    1
    71    77    78    1
    72   201   200    1
    73   198   197    2
    74    34    33    1
    75    80    81    1
    76   227   224    1
    77   227   228    1
    78   197   196    1
    79   224   223    1
    80   199   200    1
    81   199   196    1
    82    49    50    1
    83    78    79    2
    84    91    89    1
    85    89    90    1
    86    89    88    1
    87   200   202    1
    88    84    85    1
    89   218   217    2
    90    23    21    1
    91   196   195    1
    92    20    19    2
    93    33    36    1
    94    33    32    1
    95    81    83    1
    96    81    82    1
    97    27    26    2
    98    50    51    1
    99    88    85    1
   100   217   216    1
   101    85    86    1
   102   195   187   am
   103   215   216    1
   104    19    18    1
   105    32    26   am
   106    26    25    1
   107    21    18    1
   108    21    22    1
   109   184   183    2
   110    18    17    1
   111   183   182    1
   112   216   219    1
   113    51    52   ar
   114    51    53   ar
   115   187   188    2
   116   187   186    1
   117   185   186    1
   118    86    92   am
   119    86    87    2
   120    92    93    1
   121    24    25    1
   122    25    28    1
   123   186   189    1
   124    12    11    2
   125   219   220    1
   126   182   181    1
   127    17    11   am
   128    98    97    1
   129    98    99    1
   130    11    10    1
   131    97    96    1
   132    93    96    1
   133    93    94    1
   134    28    29    1
   135   220   221    1
   136    30    29    1
   137    29    31    1
   138    94    95    2
   139   189   190    1
   140     4     3    2
   141     8     7    1
   142   117   116    1
   143   190   192   ar
   144   190   191   ar
   145    10    13    1
   146    10     9    1
   147     3     2    1
   148   100   101    1
   149   221   222    1
   150    13    14    1
   151   192   194   ar
   152   191   193   ar
   153   118   116    1
   154   116   115    2
   155     5     2    1
   156     5     6    1
   157     2     1    1
   158   194   193   ar
   159   161   159    1
   160     7     6    1
   161   101   104    1
   162   101   102    1
   163   104   105    1
   164    14    15    1
   165    14    16    1
   166   115   114    1
   167   114   113    1
   168   122   121    2
   169   180   178    1
   170   160   158    1
   171   159   158    1
   172   113   112    1
   173   102   103    2
   174   107   105    1
   175   125   127   ar
   176   125   124   ar
   177   127   129   ar
   178   105   106    1
   179   144   143   ar
   180   121   120    1
   181   158   155    1
   182   179   178    1
   183   108   109    1
   184   178   177    1
   185   112   109    1
   186   135   134    1
   187   140   139    2
   188   120   123    1
   189   120   119    1
   190   123   124    1
   191   124   126   ar
   192   129   128   ar
   193   109   110    1
   194   143   142    1
   195   143   145   ar
   196   155   156    1
   197   155   154    1
   198   152   151    1
   199   152   153    1
   200   177   174    1
   201   142   141    1
   202   151   150    1
   203   139   138    1
   204   136   134    1
   205   141   138    1
   206   134   131    1
   207   157   156    2
   208   126   128   ar
   209   174   173    1
   210   174   175    1
   211   147   146    1
   212   147   150    1
   213   147   148    1
   214   156   162   am
   215   110   111    2
   216   138   137    1
   217   171   169   ar
   218   171   172   ar
   219   137   132   am
   220   149   148    2
   221   162   163    1
   222   169   167   ar
   223   131   132    1
   224   131   130    1
   225   132   133    2
   226   176   175    2
   227   172   170   ar
   228   163   164    1
   229   163   166    1
   230   167   166    1
   231   167   168   ar
   232   164   165    2
   233   170   168   ar
