@<TRIPOS>MOLECULE
tmp/2iokB00.pdb
 190 181 0 0 0
SMALL
GASTEIGER

@<TRIPOS>ATOM
      1  N         41.0720   10.6370   59.5230 N.3    34  MET34      -0.1245
      2  CA        41.4540   12.0130   59.2430 C.3    34  MET34       0.1570
      3  C         42.7930   12.0790   58.5130 C.2    34  MET34       0.2261
      4  O         42.8340   12.4220   57.3300 O.2    34  MET34      -0.2867
      5  CB        41.5330   12.8120   60.5460 C.3    34  MET34       0.0387
      6  CG        41.5240   14.3190   60.3450 C.3    34  MET34       0.0595
      7  SD        40.0840   14.8800   59.4090 S.3    34  MET34      -0.1393
      8  CE        38.8550   14.9470   60.7190 C.3    34  MET34       0.0692
      9  N         43.2250   11.1300   55.2300 N.3    37  LEU37      -0.1231
     10  CA        42.5740   12.0190   54.2800 C.3    37  LEU37       0.1693
     11  C         43.4580   13.2060   53.9100 C.2    37  LEU37       0.2592
     12  O         43.6370   13.5220   52.7340 O.2    37  LEU37      -0.2718
     13  CB        41.2610   12.5420   54.8790 C.3    37  LEU37       0.0284
     14  CG        40.1100   11.5280   54.8820 C.3    37  LEU37       0.0019
     15  CD1       38.8680   12.1370   55.5090 C.3    37  LEU37       0.0001
     16  CD2       39.8730   11.0420   53.4580 C.3    37  LEU37       0.0001
     17  N         43.9650   13.8170   54.9700 N.am   38  THR38      -0.1953
     18  CA        44.9100   14.9160   54.9740 C.3    38  THR38       0.1897
     19  C         46.1290   14.5730   54.1230 C.2    38  THR38       0.2313
     20  O         46.4840   15.2960   53.1920 O.2    38  THR38      -0.2863
     21  CB        45.3630   15.2320   56.4100 C.3    38  THR38       0.1794
     22  OG1       44.2450   15.6410   57.2160 O.3    38  THR38      -0.2208
     23  CG2       46.3530   16.3910   56.4230 C.3    38  THR38       0.0378
     24  N         47.0280   12.2820   51.7560 N.3    40  LEU40      -0.1231
     25  CA        46.8970   12.1070   50.3100 C.3    40  LEU40       0.1693
     26  C         46.1460   13.2420   49.6470 C.2    40  LEU40       0.2591
     27  O         46.2630   13.4730   48.4380 O.2    40  LEU40      -0.2718
     28  CB        46.2080   10.7630   50.0590 C.3    40  LEU40       0.0284
     29  CG        45.3130   10.6210   48.8360 C.3    40  LEU40       0.0019
     30  CD1       46.0310    9.8710   47.7320 C.3    40  LEU40       0.0001
     31  CD2       44.0130    9.9310   49.2290 C.3    40  LEU40       0.0001
     32  N         45.3470   13.9990   50.3990 N.am   41  ALA41      -0.1980
     33  CA        44.7310   15.1850   49.7930 C.3    41  ALA41       0.1597
     34  C         45.8340   16.1790   49.4230 C.2    41  ALA41       0.2287
     35  O         45.8510   16.6440   48.2850 O.2    41  ALA41      -0.2864
     36  CB        43.7030   15.8010   50.7160 C.3    41  ALA41       0.0319
     37  N         47.5360   15.0930   46.5140 N.3    44  GLU44      -0.1245
     38  CA        46.6770   15.1150   45.3240 C.3    44  GLU44       0.1567
     39  C         46.5920   16.5510   44.8140 C.2    44  GLU44       0.2260
     40  O         46.4010   16.7760   43.6250 O.2    44  GLU44      -0.2867
     41  CB        45.3130   14.5190   45.6470 C.3    44  GLU44       0.0388
     42  CG        44.8350   13.4340   44.6980 C.3    44  GLU44       0.1160
     43  CD        43.3530   13.1410   44.8130 C.2    44  GLU44       0.3649
     44  OE1       42.8800   12.9560   45.9500 O.co2  44  GLU44      -0.2457
     45  OE2       42.6400   13.0940   43.7850 O.co2  44  GLU44      -0.2457
     46  N         39.0190   23.3750   44.6150 N.3    74  TRP74      -0.1227
     47  CA        39.9530   22.2940   44.9330 C.3    74  TRP74       0.1737
     48  C         39.2250   21.0210   45.3650 C.2    74  TRP74       0.2595
     49  O         39.4550   19.9700   44.7720 O.2    74  TRP74      -0.2718
     50  CB        40.9760   22.7170   45.9780 C.3    74  TRP74       0.0564
     51  CG        40.5260   23.0830   47.3400 C.ar   74  TRP74       0.0003
     52  CD1       40.0400   24.2890   47.7630 C.ar   74  TRP74       0.0946
     53  CD2       40.5210   22.2280   48.4940 C.ar   74  TRP74       0.0152
     54  NE1       39.7330   24.2330   49.1010 N.ar   74  TRP74      -0.2442
     55  CE2       40.0190   22.9800   49.5730 C.ar   74  TRP74       0.0810
     56  CE3       40.8920   20.9000   48.7120 C.ar   74  TRP74       0.0012
     57  CZ2       39.8790   22.4440   50.8490 C.ar   74  TRP74       0.0191
     58  CZ3       40.7530   20.3710   49.9780 C.ar   74  TRP74       0.0001
     59  CH2       40.2540   21.1400   51.0280 C.ar   74  TRP74       0.0015
     60  N         38.3820   21.1240   46.3810 N.am   75  LEU75      -0.1980
     61  CA        37.6470   19.9590   46.8550 C.3    75  LEU75       0.1596
     62  C         36.7620   19.3660   45.7700 C.2    75  LEU75       0.2287
     63  O         36.5470   18.1500   45.7810 O.2    75  LEU75      -0.2864
     64  CB        36.8090   20.3070   48.0870 C.3    75  LEU75       0.0297
     65  CG        36.2650   19.1000   48.8590 C.3    75  LEU75       0.0022
     66  CD1       37.3240   18.0190   49.0210 C.3    75  LEU75       0.0001
     67  CD2       35.7490   19.5400   50.2110 C.3    75  LEU75       0.0001
     68  N         38.9760   17.0400   43.4280 N.3    78  LEU78      -0.1231
     69  CA        39.2720   15.7990   44.1180 C.3    78  LEU78       0.1693
     70  C         38.0890   14.8340   44.0040 C.2    78  LEU78       0.2591
     71  O         38.2350   13.7230   43.5050 O.2    78  LEU78      -0.2718
     72  CB        39.5420   16.0250   45.5960 C.3    78  LEU78       0.0284
     73  CG        40.8000   16.7460   46.0390 C.3    78  LEU78       0.0019
     74  CD1       40.8480   16.7400   47.5640 C.3    78  LEU78       0.0001
     75  CD2       42.0500   16.1180   45.4510 C.3    78  LEU78       0.0001
     76  N         36.9380   15.2910   44.4850 N.am   79  MET79      -0.1979
     77  CA        35.7010   14.5280   44.5160 C.3    79  MET79       0.1605
     78  C         35.3640   13.9120   43.1660 C.2    79  MET79       0.2287
     79  O         35.0870   12.7120   43.1160 O.2    79  MET79      -0.2864
     80  CB        34.5370   15.4030   44.9870 C.3    79  MET79       0.0413
     81  CG        34.5110   15.5670   46.5050 C.3    79  MET79       0.0598
     82  SD        33.3710   16.8800   46.9810 S.3    79  MET79      -0.1393
     83  CE        33.3750   16.7360   48.7570 C.3    79  MET79       0.0692
     84  N         37.9520   11.0640   42.5030 N.3    82  LEU82      -0.1245
     85  CA        37.5950    9.9620   43.3740 C.3    82  LEU82       0.1561
     86  C         36.4080    9.1740   42.8240 C.2    82  LEU82       0.2260
     87  O         36.4820    7.9600   42.6460 O.2    82  LEU82      -0.2867
     88  CB        37.2460   10.4800   44.7710 C.3    82  LEU82       0.0270
     89  CG        36.6330    9.4640   45.7320 C.3    82  LEU82       0.0019
     90  CD1       37.6880    8.4710   46.1930 C.3    82  LEU82       0.0001
     91  CD2       35.9970   10.1580   46.9290 C.3    82  LEU82       0.0001
     92  N         37.1230    6.9120   39.7930 N.3    85  ARG85      -0.1245
     93  CA        37.8600    5.6580   39.9150 C.3    85  ARG85       0.1563
     94  C         37.1020    4.6680   40.7970 C.2    85  ARG85       0.2260
     95  O         37.4820    3.5050   40.9240 O.2    85  ARG85      -0.2867
     96  CB        39.2520    5.9260   40.4760 C.3    85  ARG85       0.0307
     97  CG        39.3590    7.0230   41.5210 C.3    85  ARG85       0.0489
     98  CD        40.7920    7.1100   42.0270 C.3    85  ARG85       0.2205
     99  NE        40.8970    7.7830   43.3140 N.pl3  85  ARG85      -0.0865
    100  CZ        41.1330    9.0870   43.4380 C.cat  85  ARG85       0.5346
    101  NH1       41.2850    9.8490   42.3620 N.pl3  85  ARG85       0.1354
    102  NH2       41.2200    9.6450   44.6380 N.pl3  85  ARG85       0.1354
    103  N         39.8560    5.7820   46.9770 N.3    95  PHE95      -0.1241
    104  CA        40.7770    6.9050   47.1650 C.3    95  PHE95       0.1605
    105  C         42.0800    6.6160   46.4220 C.2    95  PHE95       0.2264
    106  O         42.4040    7.2720   45.4320 O.2    95  PHE95      -0.2867
    107  CB        41.0460    7.1730   48.6360 C.3    95  PHE95       0.0534
    108  CG        39.8700    7.7740   49.3920 C.ar   95  PHE95      -0.0203
    109  CD1       39.3400    7.1080   50.4800 C.ar   95  PHE95      -0.0042
    110  CD2       39.3100    8.9830   49.0210 C.ar   95  PHE95      -0.0042
    111  CE1       38.2710    7.6270   51.1880 C.ar   95  PHE95      -0.0003
    112  CE2       38.2450    9.5150   49.7240 C.ar   95  PHE95      -0.0003
    113  CZ        37.7260    8.8390   50.8100 C.ar   95  PHE95      -0.0000
    114  N         34.5020    9.1400   61.5060 N.3   109  VAL109     -0.1231
    115  CA        34.9030   10.5450   61.6760 C.3   109  VAL109      0.1692
    116  C         33.7560   11.3530   62.2560 C.2   109  VAL109      0.2592
    117  O         33.4060   10.9920   63.4020 O.2   109  VAL109     -0.2718
    118  CB        35.4540   11.1030   60.3610 C.3   109  VAL109      0.0266
    119  CG1       35.9150   12.5610   60.4880 C.3   109  VAL109      0.0020
    120  CG2       36.6220   10.2610   59.8690 C.3   109  VAL109      0.0020
    121  N         33.1690   12.3650   61.6600 N.am  110  GLU110     -0.1966
    122  CA        32.1670   13.2430   62.2170 C.3   110  GLU110      0.1733
    123  C         31.4480   14.0120   61.1160 C.2   110  GLU110      0.2617
    124  O         31.5480   15.2450   61.0590 O.2   110  GLU110     -0.2715
    125  CB        32.7250   14.2910   63.1950 C.3   110  GLU110      0.0429
    126  CG        31.8100   14.5720   64.3940 C.3   110  GLU110      0.1163
    127  CD        31.7310   16.0840   64.6940 C.2   110  GLU110      0.3649
    128  OE1       30.5890   16.6230   64.7490 O.co2 110  GLU110     -0.2457
    129  OE2       32.8010   16.7000   64.8640 O.co2 110  GLU110     -0.2457
    130  N         30.7140   13.3280   60.2400 N.am  111  GLY111     -0.1940
    131  CA        29.9940   14.0130   59.1680 C.3   111  GLY111      0.2014
    132  C         30.4110   13.5060   57.7970 C.2   111  GLY111      0.2638
    133  O         29.9070   13.9760   56.7720 O.2   111  GLY111     -0.2714
    134  N         31.3350   12.5470   57.8180 N.am  112  MET112     -0.1976
    135  CA        31.8250   11.9180   56.6050 C.3   112  MET112      0.1605
    136  C         30.8140   10.9600   56.0040 C.2   112  MET112      0.2287
    137  O         30.8330   10.7030   54.7950 O.2   112  MET112     -0.2864
    138  CB        33.1340   11.1640   56.8980 C.3   112  MET112      0.0413
    139  CG        34.1960   12.0880   57.4820 C.3   112  MET112      0.0598
    140  SD        35.8070   11.8660   56.7100 S.3   112  MET112     -0.1393
    141  CE        35.3780   10.7490   55.3770 C.3   112  MET112      0.0692
    142  N         28.6450   12.6490   53.4180 N.3   115  ILE115     -0.1231
    143  CA        29.4610   13.0050   52.2540 C.3   115  ILE115      0.1692
    144  C         29.8850   11.7650   51.4850 C.2   115  ILE115      0.2592
    145  O         29.9190   11.7790   50.2530 O.2   115  ILE115     -0.2718
    146  CB        30.7030   13.8300   52.6440 C.3   115  ILE115      0.0266
    147  CG1       30.4600   14.7930   53.8010 C.3   115  ILE115      0.0019
    148  CG2       31.2440   14.5800   51.4340 C.3   115  ILE115      0.0020
    149  CD1       30.8150   16.2280   53.4840 C.3   115  ILE115      0.0001
    150  N         30.2000   10.7060   52.2170 N.am  116  PHE116     -0.1976
    151  CA        30.4120    9.3840   51.6300 C.3   116  PHE116      0.1639
    152  C         29.2620    9.0330   50.6900 C.2   116  PHE116      0.2290
    153  O         29.4340    8.8190   49.4910 O.2   116  PHE116     -0.2864
    154  CB        30.5130    8.3410   52.7370 C.3   116  PHE116      0.0560
    155  CG        31.9060    7.8260   53.0390 C.ar  116  PHE116     -0.0200
    156  CD1       32.2460    6.5190   52.7390 C.ar  116  PHE116     -0.0042
    157  CD2       32.8640    8.6370   53.6300 C.ar  116  PHE116     -0.0042
    158  CE1       33.5110    6.0280   53.0090 C.ar  116  PHE116     -0.0003
    159  CE2       34.1300    8.1540   53.9020 C.ar  116  PHE116     -0.0003
    160  CZ        34.4580    6.8460   53.5880 C.ar  116  PHE116     -0.0000
    161  N         28.8320   10.9330   47.8060 N.3   119  LEU119     -0.1245
    162  CA        29.9620   10.5670   46.9480 C.3   119  LEU119      0.1561
    163  C         29.6040    9.3010   46.1840 C.2   119  LEU119      0.2260
    164  O         29.5850    9.2560   44.9560 O.2   119  LEU119     -0.2867
    165  CB        31.2290   10.4130   47.7890 C.3   119  LEU119      0.0270
    166  CG        31.9540   11.7300   48.1060 C.3   119  LEU119      0.0019
    167  CD1       33.0090   11.5610   49.1820 C.3   119  LEU119      0.0001
    168  CD2       32.5560   12.2950   46.8250 C.3   119  LEU119      0.0001
    169  N         31.4050   19.4570   52.3460 N.3   212  GLY212     -0.1225
    170  CA        32.7380   19.1000   52.7880 C.3   212  GLY212      0.1811
    171  C         33.4820   20.2260   53.4750 C.2   212  GLY212      0.2280
    172  O         34.0400   20.0320   54.5570 O.2   212  GLY212     -0.2866
    173  N         32.8920   21.2870   57.4080 N.3   215  HIS215     -0.1226
    174  CA        33.6320   20.6730   58.5040 C.3   215  HIS215      0.1752
    175  C         35.1330   20.8080   58.2960 C.2   215  HIS215      0.2595
    176  O         35.8970   20.7930   59.2610 O.2   215  HIS215     -0.2718
    177  CB        33.1890   19.2150   58.6670 C.3   215  HIS215      0.0759
    178  CG        32.9810   18.8930   60.1190 C.ar  215  HIS215      0.0818
    179  ND1       34.0470   19.0020   60.9990 N.ar  215  HIS215     -0.2268
    180  CD2       31.9360   18.4830   60.8700 C.ar  215  HIS215      0.1154
    181  CE1       33.6670   18.6780   62.2180 C.ar  215  HIS215      0.1986
    182  NE2       32.3840   18.3620   62.1640 N.ar  215  HIS215     -0.2212
    183  N         35.5730   20.9500   57.0550 N.am  216  LEU216     -0.1980
    184  CA        37.0060   21.1940   56.8700 C.3   216  LEU216      0.1596
    185  C         37.3890   22.5630   57.4190 C.2   216  LEU216      0.2287
    186  O         38.5570   22.8320   57.6990 O.2   216  LEU216     -0.2864
    187  CB        37.3840   21.0740   55.3950 C.3   216  LEU216      0.0297
    188  CG        38.0340   19.7420   55.0050 C.3   216  LEU216      0.0022
    189  CD1       38.8650   19.9150   53.7480 C.3   216  LEU216      0.0001
    190  CD2       38.8740   19.2070   56.1570 C.3   216  LEU216      0.0001
@<TRIPOS>BOND
     1    92    93    1
     2    93    96    1
     3    93    94    1
     4    96    97    1
     5    94    95    2
     6    97    98    1
     7    98    99    1
     8   101   100    1
     9    84    85    1
    10    87    86    2
    11    86    85    1
    12    79    78    2
    13    78    77    1
    14    99   100    2
    15    85    88    1
    16    68    69    1
    17   100   102    1
    18    71    70    2
    19    40    39    2
    20    45    43   ar
    21    70    69    1
    22    70    76   am
    23    69    72    1
    24    76    77    1
    25    77    80    1
    26    46    47    1
    27    42    43    1
    28    42    41    1
    29    88    89    1
    30    49    48    2
    31    43    44   ar
    32    39    38    1
    33    47    48    1
    34    47    50    1
    35   164   163    2
    36    80    81    1
    37    38    41    1
    38    38    37    1
    39    48    60   am
    40   106   105    2
    41    75    73    1
    42    72    73    1
    43    89    90    1
    44    89    91    1
    45    62    63    2
    46    62    61    1
    47    50    51    1
    48    73    74    1
    49   163   162    1
    50    60    61    1
    51   105   104    1
    52    81    82    1
    53   168   166    1
    54    61    64    1
    55   162   165    1
    56   162   161    1
    57   103   104    1
    58    82    83    1
    59   104   107    1
    60    51    52   ar
    61    51    53   ar
    62    30    29    1
    63    52    54   ar
    64   165   166    1
    65    64    65    1
    66   166   167    1
    67    35    34    2
    68    27    26    2
    69    53    56   ar
    70    53    55   ar
    71   107   108    1
    72    56    58   ar
    73    29    31    1
    74    29    28    1
    75    65    66    1
    76    65    67    1
    77   110   108   ar
    78   110   112   ar
    79    54    55   ar
    80   108   109   ar
    81    34    33    1
    82   153   152    2
    83    55    57   ar
    84    26    25    1
    85    26    32   am
    86   112   113   ar
    87    33    32    1
    88    33    36    1
    89    58    59   ar
    90    28    25    1
    91   145   144    2
    92    25    24    1
    93   109   111   ar
    94   152   151    1
    95   113   111   ar
    96    57    59   ar
    97   148   146    1
    98   144   150   am
    99   144   143    1
   100   151   150    1
   101   151   154    1
   102   143   146    1
   103   143   142    1
   104   169   170    1
   105   146   147    1
   106    12    11    2
   107   154   155    1
   108   156   158   ar
   109   156   155   ar
   110   170   171    1
   111   158   160   ar
   112   155   157   ar
   113    20    19    2
   114    16    14    1
   115   171   172    2
   116   149   147    1
   117   160   159   ar
   118   157   159   ar
   119   189   188    1
   120    11    10    1
   121    11    17   am
   122    19    18    1
   123    10    13    1
   124    10     9    1
   125   137   136    2
   126    13    14    1
   127    14    15    1
   128    17    18    1
   129    18    21    1
   130   188   187    1
   131   188   190    1
   132   141   140    1
   133   187   184    1
   134   136   135    1
   135    21    23    1
   136    21    22    1
   137   135   138    1
   138   135   134    1
   139   140   139    1
   140   133   132    2
   141   184   183    1
   142   184   185    1
   143   138   139    1
   144   183   175   am
   145     4     3    2
   146   173   174    1
   147   185   186    2
   148   132   134   am
   149   132   131    1
   150   175   174    1
   151   175   176    2
   152   174   177    1
   153     3     2    1
   154   177   178    1
   155   131   130    1
   156     2     1    1
   157     2     5    1
   158     7     6    1
   159     7     8    1
   160   120   118    1
   161   178   180   ar
   162   178   179   ar
   163   130   123   am
   164     6     5    1
   165   118   119    1
   166   118   115    1
   167   180   182   ar
   168   179   181   ar
   169   124   123    2
   170   123   122    1
   171   114   115    1
   172   121   122    1
   173   121   116   am
   174   115   116    1
   175   182   181   ar
   176   122   125    1
   177   116   117    2
   178   125   126    1
   179   126   127    1
   180   127   128   ar
   181   127   129   ar
