@<TRIPOS>MOLECULE
tmp/2iopA00.pdb
 185 176 0 0 0
SMALL
GASTEIGER

@<TRIPOS>ATOM
      1  N        -24.0410   47.6880 -113.6150 N.3    34  GLU34      -0.1231
      2  CA       -22.5950   47.8690 -113.6350 C.3    34  GLU34       0.1699
      3  C        -22.1470   49.1080 -112.8650 C.2    34  GLU34       0.2592
      4  O        -21.2530   49.0290 -112.0200 O.2    34  GLU34      -0.2718
      5  CB       -22.0920   47.9480 -115.0790 C.3    34  GLU34       0.0402
      6  CG       -21.8220   46.5920 -115.7080 C.3    34  GLU34       0.1161
      7  CD       -20.7760   45.8020 -114.9450 C.2    34  GLU34       0.3649
      8  OE1      -21.1110   44.7190 -114.4190 O.co2  34  GLU34      -0.2457
      9  OE2      -19.6180   46.2640 -114.8700 O.co2  34  GLU34      -0.2457
     10  N        -22.7650   50.2500 -113.1510 N.am   35  LEU35      -0.1980
     11  CA       -22.3900   51.4910 -112.4800 C.3    35  LEU35       0.1596
     12  C        -22.7310   51.4600 -110.9930 C.2    35  LEU35       0.2287
     13  O        -21.9030   51.8130 -110.1490 O.2    35  LEU35      -0.2864
     14  CB       -23.0780   52.6870 -113.1430 C.3    35  LEU35       0.0297
     15  CG       -22.3950   53.2330 -114.4000 C.3    35  LEU35       0.0022
     16  CD1      -23.2170   54.3720 -114.9810 C.3    35  LEU35       0.0001
     17  CD2      -20.9950   53.7130 -114.0470 C.3    35  LEU35       0.0001
     18  N        -20.1550   49.4210 -109.1480 N.3    38  ASN38      -0.1225
     19  CA       -18.9230   50.1820 -108.9730 C.3    38  ASN38       0.1785
     20  C        -19.0270   51.1370 -107.7900 C.2    38  ASN38       0.2597
     21  O        -18.0510   51.3560 -107.0720 O.2    38  ASN38      -0.2718
     22  CB       -18.6030   50.9700 -110.2450 C.3    38  ASN38       0.1169
     23  CG       -18.1960   50.0740 -111.3980 C.2    38  ASN38       0.2627
     24  OD1      -17.9110   48.8920 -111.2090 O.2    38  ASN38      -0.2716
     25  ND2      -18.1650   50.6360 -112.6010 N.am   38  ASN38      -0.0877
     26  N        -20.2140   51.7020 -107.5880 N.am   39  ALA39      -0.1979
     27  CA       -20.4240   52.6550 -106.5030 C.3    39  ALA39       0.1597
     28  C        -20.3950   51.9290 -105.1610 C.2    39  ALA39       0.2287
     29  O        -19.8740   52.4470 -104.1700 O.2    39  ALA39      -0.2864
     30  CB       -21.7570   53.3670 -106.6860 C.3    39  ALA39       0.0319
     31  N        -18.6630   48.9020 -104.4610 N.3    41  ASP41      -0.1225
     32  CA       -17.2530   48.6180 -104.2240 C.3    41  ASP41       0.1805
     33  C        -16.5260   49.8730 -103.7580 C.2    41  ASP41       0.2597
     34  O        -15.6420   49.8080 -102.9050 O.2    41  ASP41      -0.2718
     35  CB       -16.6000   48.0890 -105.5030 C.3    41  ASP41       0.1424
     36  CG       -17.2510   46.8160 -106.0060 C.2    41  ASP41       0.3668
     37  OD1      -16.7930   46.2810 -107.0370 O.co2  41  ASP41      -0.2456
     38  OD2      -18.2210   46.3510 -105.3710 O.co2  41  ASP41      -0.2456
     39  N        -16.9070   51.0150 -104.3210 N.am   42  ALA42      -0.1979
     40  CA       -16.3630   52.2950 -103.8880 C.3    42  ALA42       0.1597
     41  C        -16.5150   52.4430 -102.3790 C.2    42  ALA42       0.2287
     42  O        -15.5250   52.4780 -101.6440 O.2    42  ALA42      -0.2864
     43  CB       -17.0810   53.4340 -104.6010 C.3    42  ALA42       0.0319
     44  N        -14.9210   49.7820 -100.0720 N.3    45  LYS45      -0.1245
     45  CA       -13.4790   49.9840 -100.1120 C.3    45  LYS45       0.1561
     46  C        -13.1000   51.0730  -99.1170 C.2    45  LYS45       0.2260
     47  O        -12.2140   50.8870  -98.2820 O.2    45  LYS45      -0.2867
     48  CB       -13.0470   50.3960 -101.5210 C.3    45  LYS45       0.0271
     49  CG       -11.5540   50.3010 -101.7780 C.3    45  LYS45       0.0035
     50  CD       -11.2720   49.4130 -102.9800 C.3    45  LYS45       0.0206
     51  CE       -10.2120   50.0200 -103.8820 C.3    45  LYS45       0.1093
     52  NZ       -10.6160   49.9660 -105.3150 N.3    45  LYS45      -0.1314
     53  N        -21.7410   58.8580 -106.2590 N.3    80  ASP80      -0.1239
     54  CA       -21.5350   58.2360 -104.9570 C.3    80  ASP80       0.1674
     55  C        -20.5310   59.0310 -104.1300 C.2    80  ASP80       0.2266
     56  O        -19.6310   59.6690 -104.6750 O.2    80  ASP80      -0.2867
     57  CB       -21.0310   56.8010 -105.1300 C.3    80  ASP80       0.1410
     58  CG       -19.6710   56.7370 -105.8010 C.2    80  ASP80       0.3668
     59  OD1      -19.5750   56.1470 -106.8980 O.co2  80  ASP80      -0.2456
     60  OD2      -18.6970   57.2740 -105.2320 O.co2  80  ASP80      -0.2456
     61  N        -15.1130   56.0030 -102.2740 N.3    83  VAL83      -0.1231
     62  CA       -13.7040   56.3110 -102.0610 C.3    83  VAL83       0.1692
     63  C        -13.1170   57.1050 -103.2250 C.2    83  VAL83       0.2593
     64  O        -12.1520   57.8510 -103.0540 O.2    83  VAL83      -0.2718
     65  CB       -12.8770   55.0200 -101.8720 C.3    83  VAL83       0.0266
     66  CG1      -13.0720   54.0980 -103.0640 C.3    83  VAL83       0.0020
     67  CG2      -11.4070   55.3640 -101.6980 C.3    83  VAL83       0.0020
     68  N        -13.7030   56.9430 -104.4060 N.am   84  GLY84      -0.1942
     69  CA       -13.3070   57.7540 -105.5420 C.3    84  GLY84       0.2014
     70  C        -11.9240   57.4110 -106.0610 C.2    84  GLY84       0.2638
     71  O        -11.1530   56.7220 -105.3920 O.2    84  GLY84      -0.2714
     72  N        -11.6080   57.8960 -107.2570 N.am   85  MET85      -0.1976
     73  CA       -10.3370   57.5900 -107.9020 C.3    85  MET85       0.1605
     74  C         -9.3740   58.7680 -107.8040 C.2    85  MET85       0.2287
     75  O         -9.7940   59.9130 -107.6370 O.2    85  MET85      -0.2864
     76  CB       -10.5660   57.2490 -109.3760 C.3    85  MET85       0.0413
     77  CG       -11.4600   56.0440 -109.6050 C.3    85  MET85       0.0598
     78  SD       -12.6350   56.3060 -110.9470 S.3    85  MET85      -0.1393
     79  CE       -12.3450   54.8520 -111.9430 C.3    85  MET85       0.0692
     80  N         -5.2940   56.3890 -111.2260 N.3    89  GLU89      -0.1245
     81  CA        -6.3680   55.4050 -111.2140 C.3    89  GLU89       0.1567
     82  C         -7.2910   55.6280 -112.4040 C.2    89  GLU89       0.2260
     83  O         -7.5040   54.7260 -113.2140 O.2    89  GLU89      -0.2867
     84  CB        -7.1680   55.5110 -109.9140 C.3    89  GLU89       0.0388
     85  CG        -6.3080   55.5350 -108.6620 C.3    89  GLU89       0.1160
     86  CD        -6.9000   54.7160 -107.5330 C.2    89  GLU89       0.3649
     87  OE1       -6.9990   53.4820 -107.6870 O.co2  89  GLU89      -0.2457
     88  OE2       -7.2650   55.3050 -106.4940 O.co2  89  GLU89      -0.2457
     89  N         -5.9280   54.7600 -115.7280 N.3    92  ASP92      -0.1225
     90  CA        -5.5540   53.3530 -115.8130 C.3    92  ASP92       0.1805
     91  C         -6.7620   52.4170 -115.8400 C.2    92  ASP92       0.2598
     92  O         -6.6370   51.2460 -116.1960 O.2    92  ASP92      -0.2718
     93  CB        -4.6400   52.9820 -114.6420 C.3    92  ASP92       0.1424
     94  CG        -3.9940   51.6210 -114.8160 C.2    92  ASP92       0.3668
     95  OD1       -4.6290   50.6090 -114.4510 O.co2  92  ASP92      -0.2456
     96  OD2       -2.8520   51.5640 -115.3180 O.co2  92  ASP92      -0.2456
     97  N         -7.9270   52.9320 -115.4580 N.am   93  HIS93      -0.1961
     98  CA        -9.1530   52.1360 -115.4590 C.3    93  HIS93       0.1787
     99  C        -10.1230   52.6540 -116.5170 C.2    93  HIS93       0.2620
    100  O        -10.2990   52.0460 -117.5870 O.2    93  HIS93      -0.2715
    101  CB        -9.8240   52.1990 -114.0830 C.3    93  HIS93       0.0785
    102  CG        -9.0410   51.5370 -112.9930 C.ar   93  HIS93       0.0821
    103  ND1       -7.8790   50.8350 -113.2300 N.ar   93  HIS93      -0.2267
    104  CD2       -9.2600   51.4600 -111.6590 C.ar   93  HIS93       0.1154
    105  CE1       -7.4160   50.3540 -112.0900 C.ar   93  HIS93       0.1986
    106  NE2       -8.2360   50.7190 -111.1210 N.ar   93  HIS93      -0.2212
    107  N        -10.7500   53.7840 -116.2010 N.am   94  LEU94      -0.1977
    108  CA       -11.5650   54.5200 -117.1560 C.3    94  LEU94       0.1596
    109  C        -10.7530   54.7290 -118.4250 C.2    94  LEU94       0.2287
    110  O        -11.2940   54.7310 -119.5300 O.2    94  LEU94      -0.2864
    111  CB       -11.9590   55.8820 -116.5770 C.3    94  LEU94       0.0297
    112  CG       -12.6340   55.8960 -115.2040 C.3    94  LEU94       0.0022
    113  CD1      -12.8860   57.3320 -114.7730 C.3    94  LEU94       0.0001
    114  CD2      -13.9350   55.1150 -115.2610 C.3    94  LEU94       0.0001
    115  N         -8.5730   52.8320 -119.9390 N.3    96  THR96      -0.1203
    116  CA        -8.5730   51.6850 -120.8350 C.3    96  THR96       0.1994
    117  C         -9.9800   51.1570 -121.0970 C.2    96  THR96       0.2618
    118  O        -10.6380   51.5970 -122.0420 O.2    96  THR96      -0.2717
    119  CB        -7.6850   50.5430 -120.2840 C.3    96  THR96       0.1784
    120  OG1       -8.0830   49.3000 -120.8750 O.3    96  THR96      -0.2211
    121  CG2       -7.7930   50.4560 -118.7720 C.3    96  THR96       0.0376
    122  N        -10.4500   50.2300 -120.2640 N.am   97  ILE97      -0.1965
    123  CA       -11.7370   49.5800 -120.5210 C.3    97  ILE97       0.1727
    124  C        -12.1840   48.4800 -119.5540 C.2    97  ILE97       0.2616
    125  O        -12.9190   48.7510 -118.6030 O.2    97  ILE97      -0.2715
    126  CB       -11.7870   48.9820 -121.9580 C.3    97  ILE97       0.0290
    127  CG1      -13.1170   48.2550 -122.1750 C.3    97  ILE97       0.0022
    128  CG2      -10.6040   48.0490 -122.1890 C.3    97  ILE97       0.0023
    129  CD1      -13.3140   47.7450 -123.5860 C.3    97  ILE97       0.0001
    130  N        -11.7490   47.2450 -119.8100 N.am   98  ALA98      -0.1963
    131  CA       -12.3490   46.0590 -119.1990 C.3    98  ALA98       0.1728
    132  C        -11.6140   44.7600 -119.5550 C.2    98  ALA98       0.2616
    133  O        -11.8670   44.1440 -120.6010 O.2    98  ALA98      -0.2715
    134  CB       -13.8230   45.9380 -119.5690 C.3    98  ALA98       0.0334
    135  N        -10.7210   44.3410 -118.6610 N.am   99  LYS99      -0.1977
    136  CA        -9.8450   43.1990 -118.9010 C.3    99  LYS99       0.1596
    137  C        -10.6300   41.9020 -119.0560 C.2    99  LYS99       0.2287
    138  O        -10.3860   41.1270 -119.9820 O.2    99  LYS99      -0.2864
    139  CB        -8.8440   43.0670 -117.7580 C.3    99  LYS99       0.0298
    140  CG        -7.8210   44.1840 -117.7330 C.3    99  LYS99       0.0038
    141  CD        -7.2690   44.4520 -119.1400 C.3    99  LYS99       0.0206
    142  CE        -6.2310   45.5760 -119.1310 C.3    99  LYS99       0.1093
    143  NZ        -6.8220   46.9320 -118.8970 N.3    99  LYS99      -0.1314
    144  N        -17.6380   46.3510 -119.1370 N.3   126  GLY126     -0.1210
    145  CA       -17.7090   46.8970 -117.7950 C.3   126  GLY126      0.1956
    146  C        -18.2270   48.3210 -117.7370 C.2   126  GLY126      0.2612
    147  O        -19.3140   48.6200 -118.2290 O.2   126  GLY126     -0.2717
    148  N        -17.4410   49.1990 -117.1230 N.am  127  PHE127     -0.1962
    149  CA       -17.7680   50.6170 -117.0370 C.3   127  PHE127      0.1771
    150  C        -18.2160   51.1820 -118.3810 C.2   127  PHE127      0.2619
    151  O        -19.1930   51.9280 -118.4560 O.2   127  PHE127     -0.2715
    152  CB       -16.5520   51.3950 -116.5270 C.3   127  PHE127      0.0574
    153  CG       -16.6860   52.8840 -116.6540 C.ar  127  PHE127     -0.0200
    154  CD1      -17.3790   53.6150 -115.7030 C.ar  127  PHE127     -0.0042
    155  CD2      -16.1120   53.5560 -117.7210 C.ar  127  PHE127     -0.0042
    156  CE1      -17.4970   54.9880 -115.8150 C.ar  127  PHE127     -0.0003
    157  CE2      -16.2270   54.9270 -117.8390 C.ar  127  PHE127     -0.0003
    158  CZ       -16.9200   55.6450 -116.8840 C.ar  127  PHE127     -0.0000
    159  N        -17.5010   50.8190 -119.4400 N.am  128  TYR128     -0.1974
    160  CA       -17.8030   51.3230 -120.7740 C.3   128  TYR128      0.1639
    161  C        -19.1880   50.9100 -121.2570 C.2   128  TYR128      0.2290
    162  O        -19.6530   51.3760 -122.2980 O.2   128  TYR128     -0.2864
    163  CB       -16.7420   50.8490 -121.7700 C.3   128  TYR128      0.0560
    164  CG       -15.5380   51.7590 -121.8480 C.ar  128  TYR128     -0.0198
    165  CD1      -14.5700   51.7510 -120.8520 C.ar  128  TYR128     -0.0009
    166  CD2      -15.3750   52.6350 -122.9130 C.ar  128  TYR128     -0.0009
    167  CE1      -13.4730   52.5900 -120.9160 C.ar  128  TYR128      0.0417
    168  CE2      -14.2820   53.4770 -122.9850 C.ar  128  TYR128      0.0417
    169  CZ       -13.3350   53.4510 -121.9840 C.ar  128  TYR128      0.1957
    170  OH       -12.2460   54.2900 -122.0530 O.3   128  TYR128     -0.2866
    171  N        -17.4840   60.0560 -106.6070 N.3   174  THR174     -0.1218
    172  CA       -17.4580   59.8800 -108.0530 C.3   174  THR174      0.1862
    173  C        -18.7690   60.3340 -108.6880 C.2   174  THR174      0.2287
    174  O        -19.8410   59.8370 -108.3430 O.2   174  THR174     -0.2866
    175  CB       -17.2240   58.4020 -108.4220 C.3   174  THR174      0.1770
    176  OG1      -15.9500   57.9780 -107.9220 O.3   174  THR174     -0.2211
    177  CG2      -17.2590   58.2180 -109.9310 C.3   174  THR174      0.0375
    178  N        -20.6510   60.3310 -112.0910 N.3   176  ILE176     -0.1245
    179  CA       -20.7570   59.8350 -113.4580 C.3   176  ILE176      0.1561
    180  C        -21.9550   60.4680 -114.1550 C.2   176  ILE176      0.2260
    181  O        -23.1030   60.1600 -113.8370 O.2   176  ILE176     -0.2867
    182  CB       -20.9270   58.3030 -113.4860 C.3   176  ILE176      0.0252
    183  CG1      -19.7320   57.6320 -112.8080 C.3   176  ILE176      0.0019
    184  CG2      -21.0520   57.8210 -114.9210 C.3   176  ILE176      0.0019
    185  CD1      -18.4220   57.8440 -113.5320 C.3   176  ILE176      0.0001
@<TRIPOS>BOND
     1   129   127    1
     2   168   166   ar
     3   168   169   ar
     4   166   164   ar
     5   162   161    2
     6   128   126    1
     7   127   126    1
     8   170   169    1
     9   118   117    2
    10   169   167   ar
    11   126   123    1
    12   164   163    1
    13   164   165   ar
    14   163   160    1
    15   161   160    1
    16   117   116    1
    17   117   122   am
    18   167   165   ar
    19   120   119    1
    20   116   119    1
    21   116   115    1
    22   160   159    1
    23   133   132    2
    24   123   122    1
    25   123   124    1
    26   119   121    1
    27   138   137    2
    28   130   124   am
    29   130   131    1
    30   134   131    1
    31   132   131    1
    32   132   135   am
    33   124   125    2
    34   110   109    2
    35   159   150   am
    36   141   142    1
    37   141   140    1
    38   144   145    1
    39   142   143    1
    40   137   136    1
    41   136   135    1
    42   136   139    1
    43   151   150    2
    44   109   108    1
    45   150   149    1
    46   147   146    2
    47   157   155   ar
    48   157   158   ar
    49   145   146    1
    50   139   140    1
    51   146   148   am
    52   155   153   ar
    53   100    99    2
    54   108   111    1
    55   108   107    1
    56   148   149    1
    57   149   152    1
    58   158   156   ar
    59   153   152    1
    60   153   154   ar
    61   111   112    1
    62    99   107   am
    63    99    98    1
    64    92    91    2
    65    91    90    1
    66    91    97   am
    67   156   154   ar
    68    90    89    1
    69    90    93    1
    70     6     5    1
    71     6     7    1
    72    98    97    1
    73    98   101    1
    74    96    94   ar
    75   114   112    1
    76   112   113    1
    77     5     2    1
    78    16    15    1
    79     7     9   ar
    80     7     8   ar
    81   184   182    1
    82    94    93    1
    83    94    95   ar
    84    15    17    1
    85    15    14    1
    86   180   181    2
    87   180   179    1
    88   101   102    1
    89     2     1    1
    90     2     3    1
    91   185   183    1
    92   182   179    1
    93   182   183    1
    94   179   178    1
    95   103   102   ar
    96   103   105   ar
    97    83    82    2
    98    10     3   am
    99    10    11    1
   100    14    11    1
   101   102   104   ar
   102     3     4    2
   103    25    23   am
   104    11    12    1
   105    82    81    1
   106   105   106   ar
   107    79    78    1
   108   104   106   ar
   109    23    24    2
   110    23    22    1
   111    80    81    1
   112    81    84    1
   113    12    13    2
   114    78    77    1
   115    22    19    1
   116   177   175    1
   117    84    85    1
   118    77    76    1
   119    76    73    1
   120    18    19    1
   121    19    20    1
   122   173   174    2
   123   173   172    1
   124    85    86    1
   125   175   172    1
   126   175   176    1
   127   172   171    1
   128    73    74    1
   129    73    72    1
   130    74    75    2
   131    20    26   am
   132    20    21    2
   133    87    86   ar
   134    26    27    1
   135    86    88   ar
   136    72    70   am
   137    37    36   ar
   138    59    58   ar
   139    30    27    1
   140    27    28    1
   141    53    54    1
   142    70    69    1
   143    70    71    2
   144    36    35    1
   145    36    38   ar
   146    58    60   ar
   147    58    57    1
   148    69    68    1
   149    35    32    1
   150    52    51    1
   151    28    29    2
   152    57    54    1
   153    54    55    1
   154    56    55    2
   155    43    40    1
   156    31    32    1
   157    68    63   am
   158    39    40    1
   159    39    33   am
   160    32    33    1
   161    40    41    1
   162    51    50    1
   163    33    34    2
   164    63    64    2
   165    63    62    1
   166    66    65    1
   167    50    49    1
   168    41    42    2
   169    61    62    1
   170    62    65    1
   171    65    67    1
   172    49    48    1
   173    48    45    1
   174    45    44    1
   175    45    46    1
   176    46    47    2
