@<TRIPOS>MOLECULE
tmp/2iotA00.pdb
 96 93 0 0 0
SMALL
GASTEIGER

@<TRIPOS>ATOM
      1  N          1.0620    3.3910   -5.1590 N.3    29  THR29      -0.1203
      2  CA         2.0210    4.4050   -4.7500 C.3    29  THR29       0.1994
      3  C          2.6510    4.0800   -3.4040 C.2    29  THR29       0.2618
      4  O          3.8390    4.3440   -3.1870 O.2    29  THR29      -0.2717
      5  CB         1.4000    5.8410   -4.7280 C.3    29  THR29       0.1784
      6  OG1        2.4260    6.8040   -4.4730 O.3    29  THR29      -0.2211
      7  CG2        0.2740    5.9880   -3.6920 C.3    29  THR29       0.0376
      8  N          1.8620    3.4690   -2.5210 N.am   30  CYS30      -0.1969
      9  CA         2.3280    3.1590   -1.1770 C.3    30  CYS30       0.1712
     10  C          1.6210    2.0050   -0.5100 C.2    30  CYS30       0.2296
     11  O          0.6000    1.5260   -0.9870 O.2    30  CYS30      -0.2864
     12  CB         2.1220    4.3840   -0.2960 C.3    30  CYS30       0.0983
     13  SG         3.3280    5.7070   -0.5740 S.3    30  CYS30      -0.0798
     14  N          3.8210   11.2690    4.0630 N.3    45  HIS45      -0.1226
     15  CA         4.3460   11.6940    2.7570 C.3    45  HIS45       0.1752
     16  C          3.6520   11.0590    1.5620 C.2    45  HIS45       0.2596
     17  O          3.7250   11.5720    0.4440 O.2    45  HIS45      -0.2718
     18  CB         5.8840   11.5710    2.6580 C.3    45  HIS45       0.0759
     19  CG         6.3900   10.1930    2.3800 C.ar   45  HIS45       0.0818
     20  ND1        6.7840    9.3360    3.3810 N.ar   45  HIS45      -0.2268
     21  CD2        6.5730    9.5280    1.2150 C.ar   45  HIS45       0.1154
     22  CE1        7.1810    8.1990    2.8460 C.ar   45  HIS45       0.1986
     23  NE2        7.0630    8.2870    1.5320 N.ar   45  HIS45      -0.2212
     24  N          2.9910    9.9330    1.8240 N.am   46  CYS46      -0.1970
     25  CA         2.2560    9.1790    0.8140 C.3    46  CYS46       0.1712
     26  C          1.0330    9.9320    0.3180 C.2    46  CYS46       0.2296
     27  O          0.6150    9.7620   -0.8290 O.2    46  CYS46      -0.2864
     28  CB         1.8150    7.8440    1.3950 C.3    46  CYS46       0.0983
     29  SG         3.1960    6.7040    1.7100 S.3    46  CYS46      -0.0798
     30  N          0.6380   14.6430   -2.0200 N.3    49  ARG49      -0.1245
     31  CA         0.1080   15.0670   -3.3130 C.3    49  ARG49       0.1563
     32  C         -1.4240   15.0050   -3.3160 C.2    49  ARG49       0.2260
     33  O         -2.0180   14.0770   -2.7530 O.2    49  ARG49      -0.2867
     34  CB         0.6970   14.2040   -4.4300 C.3    49  ARG49       0.0307
     35  CG         2.1900   14.4060   -4.6670 C.3    49  ARG49       0.0489
     36  CD         2.7290   13.4330   -5.7090 C.3    49  ARG49       0.2205
     37  NE         2.8490   12.0680   -5.1930 N.pl3  49  ARG49      -0.0865
     38  CZ         3.1500   11.0000   -5.9300 C.cat  49  ARG49       0.5346
     39  NH1        3.3640   11.1150   -7.2370 N.pl3  49  ARG49       0.1354
     40  NH2        3.2490    9.8100   -5.3550 N.pl3  49  ARG49       0.1354
     41  N         12.0220   -0.0390   -0.4330 N.3   184  CYS184     -0.1221
     42  CA        12.3320    0.7600   -1.6110 C.3   184  CYS184      0.1808
     43  C         11.1200    1.6110   -1.9300 C.2   184  CYS184      0.2601
     44  O         10.1100    1.5160   -1.2350 O.2   184  CYS184     -0.2717
     45  CB        12.6720   -0.1670   -2.7800 C.3   184  CYS184      0.0970
     46  SG        13.7490    0.5350   -4.0730 S.3   184  CYS184     -0.0800
     47  N         11.2110    2.4450   -2.9680 N.am  185  GLN185     -0.1965
     48  CA        10.0890    3.3070   -3.3550 C.3   185  GLN185      0.1733
     49  C          8.8320    2.4950   -3.6550 C.2   185  GLN185      0.2616
     50  O          8.8820    1.5090   -4.3860 O.2   185  GLN185     -0.2715
     51  CB        10.4510    4.2170   -4.5380 C.3   185  GLN185      0.0408
     52  CG        11.3800    5.4000   -4.2000 C.3   185  GLN185      0.0908
     53  CD        12.8310    5.0080   -3.9240 C.2   185  GLN185      0.2608
     54  OE1       13.2940    3.9370   -4.3200 O.2   185  GLN185     -0.2717
     55  NE2       13.5540    5.8890   -3.2390 N.am  185  GLN185     -0.0878
     56  N          7.7400    2.8560   -2.9880 N.am  186  GLY186     -0.1955
     57  CA         6.4870    2.1470   -3.1630 C.3   186  GLY186      0.1869
     58  C          6.1670    1.3030   -1.9430 C.2   186  GLY186      0.2309
     59  O          5.0620    0.7780   -1.8360 O.2   186  GLY186     -0.2863
     60  N          6.8140    2.5960    1.0970 N.3   188  SER188     -0.1217
     61  CA         6.4670    3.6600    2.0450 C.3   188  SER188      0.1889
     62  C          5.0310    3.5880    2.5110 C.2   188  SER188      0.2288
     63  O          4.1480    3.2140    1.7460 O.2   188  SER188     -0.2866
     64  CB         6.7850    4.9400    1.2900 C.3   188  SER188      0.2089
     65  OG         8.2060    5.2570    1.4840 O.3   188  SER188     -0.2183
     66  N          6.8330    2.3560    7.0830 N.3   206  THR206     -0.1203
     67  CA         7.9610    2.6770    6.1900 C.3   206  THR206      0.1994
     68  C          7.9970    4.1450    5.7920 C.2   206  THR206      0.2619
     69  O          7.0290    4.6760    5.2600 O.2   206  THR206     -0.2717
     70  CB         8.0030    1.7360    4.9640 C.3   206  THR206      0.1784
     71  OG1        7.8690    0.3800    5.4000 O.3   206  THR206     -0.2211
     72  CG2        9.3340    1.8730    4.2040 C.3   206  THR206      0.0376
     73  N          9.1060    4.7960    6.1350 N.am  207  SER207     -0.1937
     74  CA         9.2620    6.2240    5.8860 C.3   207  SER207      0.2055
     75  C         10.2730    6.6240    4.8200 C.2   207  SER207      0.2643
     76  O          9.9170    7.3380    3.8770 O.2   207  SER207     -0.2714
     77  CB         9.5600    6.9420    7.2080 C.3   207  SER207      0.2130
     78  OG         9.6020    8.3500    7.0310 O.3   207  SER207     -0.2179
     79  N         11.5310    6.2150    4.9860 N.am  208  PHE208     -0.1959
     80  CA        12.5700    6.5620    4.0150 C.3   208  PHE208      0.1771
     81  C         13.7610    5.6240    3.9300 C.2   208  PHE208      0.2619
     82  O         13.9960    4.8000    4.8180 O.2   208  PHE208     -0.2715
     83  CB        13.0550    8.0310    4.1900 C.3   208  PHE208      0.0574
     84  CG        13.6870    8.3480    5.5380 C.ar  208  PHE208     -0.0200
     85  CD1       12.8980    8.7900    6.6160 C.ar  208  PHE208     -0.0042
     86  CD2       15.0860    8.2900    5.7080 C.ar  208  PHE208     -0.0042
     87  CE1       13.4870    9.1820    7.8540 C.ar  208  PHE208     -0.0003
     88  CE2       15.6960    8.6770    6.9380 C.ar  208  PHE208     -0.0003
     89  CZ        14.8960    9.1260    8.0120 C.ar  208  PHE208     -0.0000
     90  N         14.4690    5.7400    2.8080 N.am  209  VAL209     -0.1977
     91  CA        15.6900    4.9930    2.5200 C.3   209  VAL209      0.1596
     92  C         16.7010    6.0280    2.0270 C.2   209  VAL209      0.2287
     93  O         16.3600    7.2100    1.8720 O.2   209  VAL209     -0.2864
     94  CB        15.4930    3.8950    1.4270 C.3   209  VAL209      0.0276
     95  CG1       14.7260    2.7100    1.9880 C.3   209  VAL209      0.0022
     96  CG2       14.7890    4.4630    0.1880 C.3   209  VAL209      0.0022
@<TRIPOS>BOND
     1    39    38    1
     2    38    40    1
     3    38    37    2
     4    36    37    1
     5    36    35    1
     6     1     2    1
     7     2     5    1
     8     2     3    1
     9     5     6    1
    10     5     7    1
    11    35    34    1
    12    51    52    1
    13    51    48    1
    14    34    31    1
    15    50    49    2
    16    54    53    2
    17    52    53    1
    18    46    45    1
    19    53    55   am
    20    49    48    1
    21    49    56   am
    22     3     4    2
    23     3     8   am
    24    48    47    1
    25    32    31    1
    26    32    33    2
    27    31    30    1
    28    57    56    1
    29    57    58    1
    30    47    43   am
    31    45    42    1
    32     8     9    1
    33    58    59    2
    34    43    42    1
    35    43    44    2
    36    42    41    1
    37     9    10    1
    38     9    12    1
    39    11    10    2
    40    27    26    2
    41    13    12    1
    42    13    29    1
    43    96    94    1
    44    26    25    1
    45    17    16    2
    46    25    28    1
    47    25    24    1
    48    60    61    1
    49    21    23   ar
    50    21    19   ar
    51    64    65    1
    52    64    61    1
    53    28    29    1
    54    94    95    1
    55    94    91    1
    56    23    22   ar
    57    16    24   am
    58    16    15    1
    59    63    62    2
    60    93    92    2
    61    92    91    1
    62    61    62    1
    63    19    18    1
    64    19    20   ar
    65    91    90    1
    66    18    15    1
    67    15    14    1
    68    90    81   am
    69    22    20   ar
    70    76    75    2
    71    81    80    1
    72    81    82    2
    73    80    83    1
    74    80    79    1
    75    83    84    1
    76    72    70    1
    77    75    79   am
    78    75    74    1
    79    70    71    1
    80    70    67    1
    81    69    68    2
    82    84    86   ar
    83    84    85   ar
    84    86    88   ar
    85    68    73   am
    86    68    67    1
    87    74    73    1
    88    74    77    1
    89    67    66    1
    90    85    87   ar
    91    88    89   ar
    92    78    77    1
    93    87    89   ar
