@<TRIPOS>MOLECULE
tmp/2ioyB00.pdb
 101 95 0 0 0
SMALL
GASTEIGER

@<TRIPOS>ATOM
      1  N         41.8380  -17.1970   48.6680 N.3    12  ASN12      -0.1240
      2  CA        40.5670  -17.8810   48.9120 C.3    12  ASN12       0.1653
      3  C         40.4490  -19.1450   48.0510 C.2    12  ASN12       0.2266
      4  O         40.5510  -19.0640   46.8430 O.2    12  ASN12      -0.2867
      5  CB        39.4620  -16.8770   48.5450 C.3    12  ASN12       0.1155
      6  CG        38.0790  -17.3860   48.7870 C.2    12  ASN12       0.2627
      7  OD1       37.8570  -18.5810   48.9790 O.2    12  ASN12      -0.2716
      8  ND2       37.1140  -16.4660   48.7490 N.am   12  ASN12      -0.0877
      9  N         38.0510  -20.8070   46.9000 N.3    14  PHE14      -0.1227
     10  CA        37.0300  -20.6730   45.8730 C.3    14  PHE14       0.1736
     11  C         37.6450  -20.1580   44.5690 C.2    14  PHE14       0.2595
     12  O         37.4200  -20.6950   43.4840 O.2    14  PHE14      -0.2718
     13  CB        35.9650  -19.6660   46.3370 C.3    14  PHE14       0.0547
     14  CG        34.9230  -19.3280   45.2660 C.ar   14  PHE14      -0.0202
     15  CD1       33.7890  -20.1140   45.1170 C.ar   14  PHE14      -0.0042
     16  CD2       35.0810  -18.2200   44.4440 C.ar   14  PHE14      -0.0042
     17  CE1       32.8190  -19.8190   44.1460 C.ar   14  PHE14      -0.0003
     18  CE2       34.1110  -17.9160   43.4660 C.ar   14  PHE14      -0.0003
     19  CZ        32.9870  -18.7430   43.3190 C.ar   14  PHE14      -0.0000
     20  N         38.4620  -19.1250   44.6910 N.am   15  PHE15      -0.1976
     21  CA        39.0420  -18.4950   43.5110 C.3    15  PHE15       0.1639
     22  C         40.1670  -19.3110   42.9040 C.2    15  PHE15       0.2290
     23  O         40.3750  -19.2560   41.6760 O.2    15  PHE15      -0.2864
     24  CB        39.4420  -17.0670   43.8310 C.3    15  PHE15       0.0560
     25  CG        38.2380  -16.1350   43.9730 C.ar   15  PHE15      -0.0200
     26  CD1       37.3740  -15.9420   42.8980 C.ar   15  PHE15      -0.0042
     27  CD2       37.9830  -15.4600   45.1580 C.ar   15  PHE15      -0.0042
     28  CE1       36.2480  -15.1100   43.0230 C.ar   15  PHE15      -0.0003
     29  CE2       36.8910  -14.6390   45.2880 C.ar   15  PHE15      -0.0003
     30  CZ        36.0190  -14.4660   44.2100 C.ar   15  PHE15      -0.0000
     31  N         31.7100  -14.0740   38.2940 N.3    88  ASP88      -0.1225
     32  CA        31.3960  -14.1940   39.7280 C.3    88  ASP88       0.1805
     33  C         30.8430  -12.9090   40.3670 C.2    88  ASP88       0.2597
     34  O         29.9400  -12.9760   41.2090 O.2    88  ASP88      -0.2718
     35  CB        32.5860  -14.7850   40.5050 C.3    88  ASP88       0.1424
     36  CG        32.3410  -14.8460   41.9910 C.2    88  ASP88       0.3668
     37  OD1       31.4690  -15.6410   42.4200 O.co2  88  ASP88      -0.2456
     38  OD2       33.0160  -14.0670   42.7250 O.co2  88  ASP88      -0.2456
     39  N         31.3740  -11.7510   39.9810 N.am   89  ARG89      -0.1979
     40  CA        30.9010  -10.4480   40.4730 C.3    89  ARG89       0.1597
     41  C         30.7920   -9.5260   39.2920 C.2    89  ARG89       0.2287
     42  O         31.6210   -9.5870   38.3850 O.2    89  ARG89      -0.2864
     43  CB        31.8770   -9.8110   41.4640 C.3    89  ARG89       0.0334
     44  CG        32.2310  -10.6590   42.6590 C.3    89  ARG89       0.0492
     45  CD        33.4500  -10.0530   43.3640 C.3    89  ARG89       0.2205
     46  NE        33.8270  -10.8140   44.5470 N.pl3  89  ARG89      -0.0865
     47  CZ        34.8930  -10.5240   45.2830 C.cat  89  ARG89       0.5346
     48  NH1       35.6590   -9.4900   44.9760 N.pl3  89  ARG89       0.1354
     49  NH2       35.1780  -11.2540   46.3440 N.pl3  89  ARG89       0.1354
     50  N         28.1930  -10.0690   44.7120 N.3   136  ALA136     -0.1245
     51  CA        27.8670  -11.3390   45.3390 C.3   136  ALA136      0.1562
     52  C         27.4620  -11.1950   46.8000 C.2   136  ALA136      0.2260
     53  O         26.4840  -11.8320   47.2490 O.2   136  ALA136     -0.2867
     54  CB        29.0490  -12.3730   45.1740 C.3   136  ALA136      0.0290
     55  N         23.6140  -11.5900   48.2990 N.3   140  ARG140     -0.1245
     56  CA        23.3510  -12.5580   49.3710 C.3   140  ARG140      0.1563
     57  C         22.7050  -11.9100   50.5560 C.2   140  ARG140      0.2260
     58  O         21.8220  -12.5060   51.1570 O.2   140  ARG140     -0.2867
     59  CB        24.6060  -13.3140   49.8600 C.3   140  ARG140      0.0307
     60  CG        25.0750  -14.4050   48.8970 C.3   140  ARG140      0.0489
     61  CD        26.5720  -14.7150   48.9790 C.3   140  ARG140      0.2205
     62  NE        27.0770  -15.2030   47.7010 N.pl3 140  ARG140     -0.0865
     63  CZ        28.3490  -15.4280   47.4040 C.cat 140  ARG140      0.5346
     64  NH1       29.3080  -15.2440   48.3010 N.pl3 140  ARG140      0.1354
     65  NH2       28.6630  -15.8100   46.1910 N.pl3 140  ARG140      0.1354
     66  N         35.0170  -11.4460   53.4610 N.3   164  PHE164     -0.1241
     67  CA        35.1800  -12.7310   52.7550 C.3   164  PHE164      0.1605
     68  C         36.4520  -13.4510   53.1720 C.2   164  PHE164      0.2264
     69  O         36.9630  -14.3340   52.4620 O.2   164  PHE164     -0.2867
     70  CB        35.1920  -12.5720   51.2290 C.3   164  PHE164      0.0534
     71  CG        33.8380  -12.4350   50.5870 C.ar  164  PHE164     -0.0203
     72  CD1       32.7280  -13.1750   51.0150 C.ar  164  PHE164     -0.0042
     73  CD2       33.6860  -11.6090   49.4940 C.ar  164  PHE164     -0.0042
     74  CE1       31.5010  -13.0580   50.4000 C.ar  164  PHE164     -0.0003
     75  CE2       32.4400  -11.4810   48.8720 C.ar  164  PHE164     -0.0003
     76  CZ        31.3560  -12.2100   49.3150 C.ar  164  PHE164     -0.0000
     77  N         30.4780  -16.2760   53.0110 N.3   190  ASN190     -0.1240
     78  CA        31.2940  -17.2950   52.3840 C.3   190  ASN190      0.1653
     79  C         31.8880  -18.2680   53.3890 C.2   190  ASN190      0.2266
     80  O         31.8500  -18.0460   54.5970 O.2   190  ASN190     -0.2867
     81  CB        32.3700  -16.6830   51.4500 C.3   190  ASN190      0.1155
     82  CG        33.6300  -16.2190   52.1840 C.2   190  ASN190      0.2627
     83  OD1       33.6020  -15.9680   53.3800 O.2   190  ASN190     -0.2716
     84  ND2       34.7210  -16.0310   51.4290 N.am  190  ASN190     -0.0877
     85  N         29.7390  -21.4440   49.3750 N.3   215  ASP215     -0.1239
     86  CA        30.7450  -21.7320   48.3270 C.3   215  ASP215      0.1674
     87  C         30.8920  -23.2320   48.0680 C.2   215  ASP215      0.2266
     88  O         31.0900  -23.6800   46.9130 O.2   215  ASP215     -0.2867
     89  CB        32.1490  -21.1870   48.6530 C.3   215  ASP215      0.1410
     90  CG        32.3050  -19.7110   48.4120 C.2   215  ASP215      0.3668
     91  OD1       31.3490  -19.0350   47.9450 O.co2 215  ASP215     -0.2456
     92  OD2       33.4300  -19.2050   48.7100 O.co2 215  ASP215     -0.2456
     93  N         28.5060  -23.4000   45.2730 N.3   235  GLN235     -0.1245
     94  CA        28.5630  -22.7670   43.9490 C.3   235  GLN235      0.1566
     95  C         29.4260  -23.6320   43.0440 C.2   235  GLN235      0.2260
     96  O         29.9640  -24.6310   43.4810 O.2   235  GLN235     -0.2867
     97  CB        29.2270  -21.3900   44.0460 C.3   235  GLN235      0.0367
     98  CG        28.5820  -20.3480   44.9320 C.3   235  GLN235      0.0905
     99  CD        29.1520  -18.9830   44.6270 C.2   235  GLN235      0.2608
    100  OE1       28.7610  -18.3520   43.6390 O.2   235  GLN235     -0.2717
    101  NE2       30.0540  -18.5030   45.4710 N.am  235  GLN235     -0.0878
@<TRIPOS>BOND
     1    31    32    1
     2    42    41    2
     3    41    40    1
     4    32    33    1
     5    32    35    1
     6    39    33   am
     7    39    40    1
     8    33    34    2
     9    40    43    1
    10    35    36    1
    11    43    44    1
    12    23    22    2
    13    36    37   ar
    14    36    38   ar
    15    44    45    1
    16    26    28   ar
    17    26    25   ar
    18    22    21    1
    19    28    30   ar
    20    95    96    2
    21    95    94    1
    22    19    18   ar
    23    19    17   ar
    24    45    46    1
    25    18    16   ar
    26    12    11    2
    27    21    24    1
    28    21    20    1
    29   100    99    2
    30    24    25    1
    31    94    97    1
    32    94    93    1
    33    25    27   ar
    34    97    98    1
    35    17    15   ar
    36    30    29   ar
    37    16    14   ar
    38    46    47    2
    39    11    20   am
    40    11    10    1
    41    99    98    1
    42    99   101   am
    43    50    51    1
    44    48    47    1
    45    15    14   ar
    46    27    29   ar
    47    54    51    1
    48    14    13    1
    49    47    49    1
    50    51    52    1
    51    10    13    1
    52    10     9    1
    53    65    63    1
    54    52    53    2
    55     4     3    2
    56    88    87    2
    57    63    62    2
    58    63    64    1
    59    62    61    1
    60    91    90   ar
    61     3     2    1
    62    87    86    1
    63    55    56    1
    64    86    89    1
    65    86    85    1
    66    90    89    1
    67    90    92   ar
    68     5     6    1
    69     5     2    1
    70     1     2    1
    71     8     6   am
    72     6     7    2
    73    75    76   ar
    74    75    73   ar
    75    60    61    1
    76    60    59    1
    77    76    74   ar
    78    56    59    1
    79    56    57    1
    80    73    71   ar
    81    74    72   ar
    82    57    58    2
    83    71    72   ar
    84    71    70    1
    85    70    67    1
    86    84    82   am
    87    81    82    1
    88    81    78    1
    89    82    83    2
    90    78    77    1
    91    78    79    1
    92    69    68    2
    93    67    68    1
    94    67    66    1
    95    79    80    2
