@<TRIPOS>MOLECULE
tmp/2ipfA02.pdb
 97 94 0 0 0
SMALL
GASTEIGER

@<TRIPOS>ATOM
      1  N         27.1230    2.5480   37.9620 N.3     2  CYS2       -0.1235
      2  CA        26.8030    1.3280   37.2230 C.3     2  CYS2        0.1677
      3  C         26.3170    0.2120   38.1340 C.2     2  CYS2        0.2270
      4  O         26.4400    0.2880   39.3570 O.2     2  CYS2       -0.2867
      5  CB        28.0380    0.8060   36.4750 C.3     2  CYS2        0.0956
      6  SG        28.7230    1.8910   35.2200 S.3     2  CYS2       -0.0801
      7  N         29.8670   -8.1280   33.6200 N.3     9  ASN9       -0.1225
      8  CA        30.0280   -6.8120   33.0220 C.3     9  ASN9        0.1785
      9  C         29.2620   -5.7080   33.7400 C.2     9  ASN9        0.2597
     10  O         28.2660   -5.9670   34.4140 O.2     9  ASN9       -0.2718
     11  CB        29.6310   -6.8650   31.5470 C.3     9  ASN9        0.1169
     12  CG        30.6900   -7.5340   30.6970 C.2     9  ASN9        0.2627
     13  OD1       31.8100   -7.0360   30.5890 O.2     9  ASN9       -0.2716
     14  ND2       30.3490   -8.6710   30.0950 N.am    9  ASN9       -0.0877
     15  N         29.7460   -4.4770   33.5940 N.am   10  PHE10      -0.1976
     16  CA        29.1240   -3.3190   34.2220 C.3    10  PHE10       0.1639
     17  C         28.2920   -2.5330   33.2170 C.2    10  PHE10       0.2290
     18  O         28.6810   -2.3790   32.0600 O.2    10  PHE10      -0.2864
     19  CB        30.1880   -2.3860   34.8170 C.3    10  PHE10       0.0560
     20  CG        30.9240   -2.9680   35.9840 C.ar   10  PHE10      -0.0200
     21  CD1       31.8020   -4.0330   35.8120 C.ar   10  PHE10      -0.0042
     22  CD2       30.7300   -2.4590   37.2650 C.ar   10  PHE10      -0.0042
     23  CE1       32.4770   -4.5870   36.9020 C.ar   10  PHE10      -0.0003
     24  CE2       31.4000   -3.0050   38.3610 C.ar   10  PHE10      -0.0003
     25  CZ        32.2760   -4.0720   38.1770 C.ar   10  PHE10      -0.0000
     26  N         26.0280    1.1950   32.8770 N.3    12  PRO12      -0.2116
     27  CA        25.6690    2.4780   33.4970 C.3    12  PRO12       0.1372
     28  C         24.1600    2.4820   33.7610 C.2    12  PRO12       0.2244
     29  O         23.3890    2.1140   32.8830 O.2    12  PRO12      -0.2868
     30  CB        26.0720    3.4990   32.4350 C.3    12  PRO12       0.0268
     31  CG        27.2180    2.8080   31.7130 C.3    12  PRO12       0.0207
     32  CD        26.6780    1.4060   31.5720 C.3    12  PRO12       0.0892
     33  N         35.9780    1.9930   25.5110 N.3    72  GLU72      -0.1231
     34  CA        35.8160    1.1490   26.6920 C.3    72  GLU72       0.1699
     35  C         34.9130    1.7510   27.7640 C.2    72  GLU72       0.2592
     36  O         34.4140    1.0310   28.6280 O.2    72  GLU72      -0.2718
     37  CB        37.1850    0.8180   27.2990 C.3    72  GLU72       0.0402
     38  CG        38.0770    2.0270   27.4990 C.3    72  GLU72       0.1161
     39  CD        39.4620    1.6560   28.0050 C.2    72  GLU72       0.3649
     40  OE1       40.3520    2.5310   27.9900 O.co2  72  GLU72      -0.2457
     41  OE2       39.6600    0.4960   28.4210 O.co2  72  GLU72      -0.2457
     42  N         34.7100    3.0640   27.7130 N.am   73  ASP73      -0.1960
     43  CA        33.8570    3.7420   28.6830 C.3    73  ASP73       0.1840
     44  C         32.4240    3.8490   28.1760 C.2    73  ASP73       0.2622
     45  O         31.5070    4.1550   28.9380 O.2    73  ASP73      -0.2715
     46  CB        34.4080    5.1370   28.9840 C.3    73  ASP73       0.1450
     47  CG        35.6840    5.0920   29.8000 C.2    73  ASP73       0.3671
     48  OD1       36.4230    6.0950   29.8070 O.co2  73  ASP73      -0.2456
     49  OD2       35.9400    4.0530   30.4420 O.co2  73  ASP73      -0.2456
     50  N         32.2410    3.5980   26.8830 N.am   74  ILE74      -0.1963
     51  CA        30.9210    3.6520   26.2700 C.3    74  ILE74       0.1727
     52  C         30.2500    2.2850   26.3710 C.2    74  ILE74       0.2616
     53  O         30.8990    1.2490   26.2140 O.2    74  ILE74      -0.2715
     54  CB        31.0170    4.0480   24.7740 C.3    74  ILE74       0.0290
     55  CG1       31.4910    5.5000   24.6430 C.3    74  ILE74       0.0022
     56  CG2       29.6730    3.8280   24.0760 C.3    74  ILE74       0.0023
     57  CD1       30.4910    6.5360   25.1180 C.3    74  ILE74       0.0001
     58  N         28.9530    2.2850   26.6640 N.am   75  PHE75      -0.1974
     59  CA        28.1960    1.0450   26.7430 C.3    75  PHE75       0.1639
     60  C         27.1330    1.1770   25.6630 C.2    75  PHE75       0.2290
     61  O         26.1680    1.9230   25.8220 O.2    75  PHE75      -0.2864
     62  CB        27.5410    0.8690   28.1230 C.3    75  PHE75       0.0560
     63  CG        26.8660   -0.4680   28.3060 C.ar   75  PHE75      -0.0200
     64  CD1       25.6640   -0.7550   27.6560 C.ar   75  PHE75      -0.0042
     65  CD2       27.4460   -1.4550   29.1010 C.ar   75  PHE75      -0.0042
     66  CE1       25.0520   -2.0030   27.7910 C.ar   75  PHE75      -0.0003
     67  CE2       26.8410   -2.7120   29.2440 C.ar   75  PHE75      -0.0003
     68  CZ        25.6430   -2.9870   28.5890 C.ar   75  PHE75      -0.0000
     69  N         32.6640   -4.3100   18.2910 N.3   105  TYR105     -0.1241
     70  CA        31.7400   -5.0420   19.1460 C.3   105  TYR105      0.1605
     71  C         30.7160   -4.0890   19.7440 C.2   105  TYR105      0.2264
     72  O         30.9270   -2.8730   19.7590 O.2   105  TYR105     -0.2867
     73  CB        32.5230   -5.6880   20.2950 C.3   105  TYR105      0.0534
     74  CG        33.0480   -4.6700   21.2990 C.ar  105  TYR105     -0.0201
     75  CD1       32.3200   -4.3500   22.4460 C.ar  105  TYR105     -0.0009
     76  CD2       34.2390   -3.9780   21.0660 C.ar  105  TYR105     -0.0009
     77  CE1       32.7600   -3.3650   23.3340 C.ar  105  TYR105      0.0417
     78  CE2       34.6880   -2.9880   21.9480 C.ar  105  TYR105      0.0417
     79  CZ        33.9430   -2.6860   23.0770 C.ar  105  TYR105      0.1957
     80  OH        34.3660   -1.6940   23.9430 O.3   105  TYR105     -0.2866
     81  N         28.2810   -3.6020   23.3100 N.3   107  ASP107     -0.1239
     82  CA        28.3510   -4.0670   24.6890 C.3   107  ASP107      0.1674
     83  C         27.1880   -4.9720   25.0750 C.2   107  ASP107      0.2266
     84  O         27.3380   -5.8850   25.8910 O.2   107  ASP107     -0.2867
     85  CB        28.4180   -2.8720   25.6350 C.3   107  ASP107      0.1410
     86  CG        29.6520   -2.0270   25.4010 C.2   107  ASP107      0.3668
     87  OD1       29.6440   -1.1950   24.4700 O.co2 107  ASP107     -0.2456
     88  OD2       30.6380   -2.2180   26.1380 O.co2 107  ASP107     -0.2456
     89  N         29.5130   -8.2230   24.0940 N.3   156  LYS156     -0.1245
     90  CA        30.0050   -8.6100   25.4100 C.3   156  LYS156      0.1561
     91  C         28.9160   -9.2730   26.2430 C.2   156  LYS156      0.2260
     92  O         29.1860  -10.2080   26.9990 O.2   156  LYS156     -0.2867
     93  CB        30.5580   -7.3900   26.1520 C.3   156  LYS156      0.0271
     94  CG        31.7900   -6.7680   25.4920 C.3   156  LYS156      0.0035
     95  CD        32.3430   -5.6080   26.3230 C.3   156  LYS156      0.0206
     96  CE        32.8860   -6.0840   27.6660 C.3   156  LYS156      0.1093
     97  NZ        33.3450   -4.9550   28.5280 N.3   156  LYS156     -0.1314
@<TRIPOS>BOND
     1    69    70    1
     2    70    71    1
     3    70    73    1
     4    71    72    2
     5    73    74    1
     6    76    74   ar
     7    76    78   ar
     8    74    75   ar
     9    78    79   ar
    10    75    77   ar
    11    79    77   ar
    12    79    80    1
    13    81    82    1
    14    56    54    1
    15    89    90    1
    16    87    86   ar
    17    55    54    1
    18    55    57    1
    19    82    83    1
    20    82    85    1
    21    54    51    1
    22    83    84    2
    23    86    85    1
    24    86    88   ar
    25    90    93    1
    26    90    91    1
    27    94    93    1
    28    94    95    1
    29    33    34    1
    30    60    61    2
    31    60    59    1
    32    53    52    2
    33    91    92    2
    34    51    52    1
    35    51    50    1
    36    95    96    1
    37    52    58   am
    38    58    59    1
    39    34    37    1
    40    34    35    1
    41    59    62    1
    42    50    44   am
    43    37    38    1
    44    38    39    1
    45    64    66   ar
    46    64    63   ar
    47    96    97    1
    48    42    35   am
    49    42    43    1
    50    35    36    2
    51    66    68   ar
    52    40    39   ar
    53    39    41   ar
    54    62    63    1
    55    44    43    1
    56    44    45    2
    57    63    65   ar
    58    68    67   ar
    59    43    46    1
    60    46    47    1
    61    65    67   ar
    62    47    48   ar
    63    47    49   ar
    64    14    12   am
    65    13    12    2
    66    12    11    1
    67    11     8    1
    68    32    31    1
    69    32    26    1
    70    31    30    1
    71    18    17    2
    72    30    27    1
    73    26    27    1
    74    29    28    2
    75     8     7    1
    76     8     9    1
    77    17    16    1
    78    27    28    1
    79    15     9   am
    80    15    16    1
    81     9    10    2
    82    16    19    1
    83    19    20    1
    84     6     5    1
    85    21    20   ar
    86    21    23   ar
    87    20    22   ar
    88     5     2    1
    89    23    25   ar
    90     2     1    1
    91     2     3    1
    92    22    24   ar
    93     3     4    2
    94    25    24   ar
