@<TRIPOS>MOLECULE
tmp/2ipfA01.pdb
 154 153 0 0 0
SMALL
GASTEIGER

@<TRIPOS>ATOM
      1  N         16.2800    6.1460   19.7000 N.3    19  ALA19      -0.1231
      2  CA        15.1520    5.9750   18.7970 C.3    19  ALA19       0.1694
      3  C         14.6050    7.3840   18.5680 C.2    19  ALA19       0.2591
      4  O         14.5420    8.1920   19.4980 O.2    19  ALA19      -0.2718
      5  CB        14.0880    5.0910   19.4320 C.3    19  ALA19       0.0304
      6  N         14.2280    7.6890   17.3330 N.am   20  LEU20      -0.1980
      7  CA        13.6890    9.0060   17.0190 C.3    20  LEU20       0.1596
      8  C         12.2900    8.8910   16.4370 C.2    20  LEU20       0.2287
      9  O         11.9650    7.9120   15.7680 O.2    20  LEU20      -0.2864
     10  CB        14.5800    9.7280   16.0030 C.3    20  LEU20       0.0297
     11  CG        15.9980   10.1200   16.4290 C.3    20  LEU20       0.0022
     12  CD1       16.7660   10.6150   15.2190 C.3    20  LEU20       0.0001
     13  CD2       15.9400   11.1920   17.5130 C.3    20  LEU20       0.0001
     14  N          9.2110    9.3210   13.9270 N.3    22  LEU22      -0.1245
     15  CA         9.2200    9.3030   12.4660 C.3    22  LEU22       0.1561
     16  C          9.4070   10.6980   11.8700 C.2    22  LEU22       0.2260
     17  O         10.0300   10.8560   10.8150 O.2    22  LEU22      -0.2867
     18  CB         7.9130    8.6950   11.9390 C.3    22  LEU22       0.0270
     19  CG         7.7930    8.5410   10.4170 C.3    22  LEU22       0.0019
     20  CD1        8.8170    7.5230    9.9310 C.3    22  LEU22       0.0001
     21  CD2        6.3830    8.0920   10.0430 C.3    22  LEU22       0.0001
     22  N         16.6660   11.0660   10.3870 N.3    26  LYS26      -0.1245
     23  CA        17.5390   10.1100   11.0660 C.3    26  LYS26       0.1561
     24  C         18.8730   10.7020   11.5150 C.2    26  LYS26       0.2260
     25  O         19.4210   10.3000   12.5420 O.2    26  LYS26      -0.2867
     26  CB        17.7890    8.8960   10.1620 C.3    26  LYS26       0.0271
     27  CG        16.5530    8.0220    9.9450 C.3    26  LYS26       0.0035
     28  CD        16.0550    7.4390   11.2650 C.3    26  LYS26       0.0206
     29  CE        14.8510    6.5200   11.0750 C.3    26  LYS26       0.1093
     30  NZ        13.6400    7.2390   10.5690 N.3    26  LYS26      -0.1314
     31  N         16.1950   -1.7880   13.9730 N.3    49  VAL49      -0.1231
     32  CA        14.9450   -1.2510   13.4420 C.3    49  VAL49       0.1692
     33  C         14.8140    0.2800   13.5440 C.2    49  VAL49       0.2592
     34  O         14.0350    0.8900   12.8090 O.2    49  VAL49      -0.2718
     35  CB        13.7220   -1.9230   14.1320 C.3    49  VAL49       0.0266
     36  CG1       13.4980   -1.3270   15.5140 C.3    49  VAL49       0.0020
     37  CG2       12.4830   -1.7860   13.2610 C.3    49  VAL49       0.0020
     38  N         15.5710    0.9030   14.4450 N.am   50  TYR50      -0.1962
     39  CA        15.5060    2.3590   14.6090 C.3    50  TYR50       0.1771
     40  C         16.0880    3.0850   13.4000 C.2    50  TYR50       0.2619
     41  O         15.7120    4.2210   13.1070 O.2    50  TYR50      -0.2715
     42  CB        16.2850    2.8070   15.8500 C.3    50  TYR50       0.0574
     43  CG        15.7800    2.2750   17.1720 C.ar   50  TYR50      -0.0198
     44  CD1       16.5500    2.4140   18.3270 C.ar   50  TYR50      -0.0009
     45  CD2       14.5490    1.6210   17.2720 C.ar   50  TYR50      -0.0009
     46  CE1       16.1170    1.9120   19.5460 C.ar   50  TYR50       0.0417
     47  CE2       14.1030    1.1120   18.4920 C.ar   50  TYR50       0.0417
     48  CZ        14.8970    1.2590   19.6250 C.ar   50  TYR50       0.1957
     49  OH        14.4910    0.7240   20.8280 O.3    50  TYR50      -0.2866
     50  N         17.0170    2.4290   12.7120 N.am   51  ASN51      -0.1972
     51  CA        17.6720    3.0140   11.5460 C.3    51  ASN51       0.1688
     52  C         18.4750    4.2730   11.9040 C.2    51  ASN51       0.2292
     53  O         18.5630    5.2100   11.1090 O.2    51  ASN51      -0.2864
     54  CB        16.6420    3.3510   10.4610 C.3    51  ASN51       0.1181
     55  CG        16.0400    2.1140    9.8210 C.2    51  ASN51       0.2629
     56  OD1       16.7610    1.2070    9.4010 O.2    51  ASN51      -0.2716
     57  ND2       14.7150    2.0750    9.7340 N.am   51  ASN51      -0.0877
     58  N         16.0880   -7.4210   15.1680 N.3    81  TRP81      -0.1241
     59  CA        14.6700   -7.2790   14.8700 C.3    81  TRP81       0.1605
     60  C         13.9880   -8.6090   14.5380 C.2    81  TRP81       0.2264
     61  O         14.6400   -9.5870   14.1650 O.2    81  TRP81      -0.2867
     62  CB        14.4890   -6.2720   13.7260 C.3    81  TRP81       0.0550
     63  CG        13.0630   -5.9910   13.4000 C.ar   81  TRP81       0.0003
     64  CD1       12.4250   -6.2630   12.2270 C.ar   81  TRP81       0.0946
     65  CD2       12.0740   -5.4440   14.2780 C.ar   81  TRP81       0.0152
     66  NE1       11.0980   -5.9290   12.3180 N.ar   81  TRP81      -0.2442
     67  CE2       10.8520   -5.4230   13.5680 C.ar   81  TRP81       0.0810
     68  CE3       12.0990   -4.9720   15.5970 C.ar   81  TRP81       0.0012
     69  CZ2        9.6620   -4.9470   14.1320 C.ar   81  TRP81       0.0191
     70  CZ3       10.9140   -4.4970   16.1620 C.ar   81  TRP81       0.0001
     71  CH2        9.7100   -4.4900   15.4260 C.ar   81  TRP81       0.0015
     72  N         14.8170   -8.0610   20.2670 N.3   112  HIS112     -0.1226
     73  CA        13.8860   -6.9390   20.3870 C.3   112  HIS112      0.1752
     74  C         12.4640   -7.2740   20.8410 C.2   112  HIS112      0.2596
     75  O         11.8900   -6.5610   21.6640 O.2   112  HIS112     -0.2718
     76  CB        13.8600   -6.1600   19.0660 C.3   112  HIS112      0.0759
     77  CG        13.5350   -4.7080   19.2270 C.ar  112  HIS112      0.0818
     78  ND1       14.0780   -3.7320   18.4190 N.ar  112  HIS112     -0.2268
     79  CD2       12.7170   -4.0640   20.0940 C.ar  112  HIS112      0.1154
     80  CE1       13.6100   -2.5510   18.7810 C.ar  112  HIS112      0.1986
     81  NE2       12.7810   -2.7240   19.7950 N.ar  112  HIS112     -0.2212
     82  N         11.9050   -8.3500   20.2990 N.am  113  TYR113     -0.1976
     83  CA        10.5580   -8.8200   20.6450 C.3   113  TYR113      0.1639
     84  C         10.5800  -10.3420   20.5140 C.2   113  TYR113      0.2290
     85  O         11.3100  -10.8810   19.6870 O.2   113  TYR113     -0.2864
     86  CB         9.5100   -8.2830   19.6670 C.3   113  TYR113      0.0560
     87  CG         8.9410   -6.9130   19.9660 C.ar  113  TYR113     -0.0198
     88  CD1        9.0170   -5.8910   19.0200 C.ar  113  TYR113     -0.0009
     89  CD2        8.2670   -6.6560   21.1610 C.ar  113  TYR113     -0.0009
     90  CE1        8.4330   -4.6470   19.2510 C.ar  113  TYR113      0.0417
     91  CE2        7.6750   -5.4080   21.4040 C.ar  113  TYR113      0.0417
     92  CZ         7.7620   -4.4110   20.4420 C.ar  113  TYR113      0.1957
     93  OH         7.1720   -3.1820   20.6570 O.3   113  TYR113     -0.2866
     94  N          8.6310   -4.7070    8.2810 N.3   124  PHE124     -0.1241
     95  CA         7.2380   -4.9830    8.5970 C.3   124  PHE124      0.1605
     96  C          6.4990   -5.6080    7.4220 C.2   124  PHE124      0.2264
     97  O          5.6180   -4.9890    6.8180 O.2   124  PHE124     -0.2867
     98  CB         6.5330   -3.7040    9.0510 C.3   124  PHE124      0.0534
     99  CG         7.1240   -3.1090   10.2940 C.ar  124  PHE124     -0.0203
    100  CD1        8.1970   -2.2260   10.2170 C.ar  124  PHE124     -0.0042
    101  CD2        6.6380   -3.4690   11.5490 C.ar  124  PHE124     -0.0042
    102  CE1        8.7800   -1.7110   11.3710 C.ar  124  PHE124     -0.0003
    103  CE2        7.2150   -2.9590   12.7110 C.ar  124  PHE124     -0.0003
    104  CZ         8.2870   -2.0800   12.6210 C.ar  124  PHE124     -0.0000
    105  N         12.1850    1.5460   29.4850 N.3   211  TYR211     -0.1241
    106  CA        11.9810    2.5710   28.4760 C.3   211  TYR211      0.1605
    107  C         10.5780    3.0590   28.8380 C.2   211  TYR211      0.2264
    108  O          9.9160    2.4550   29.6980 O.2   211  TYR211     -0.2867
    109  CB        12.0600    2.0030   27.0480 C.3   211  TYR211      0.0534
    110  CG        11.0000    0.9920   26.6370 C.ar  211  TYR211     -0.0201
    111  CD1        9.7270    1.3990   26.2430 C.ar  211  TYR211     -0.0009
    112  CD2       11.3070   -0.3660   26.5570 C.ar  211  TYR211     -0.0009
    113  CE1        8.7860    0.4750   25.7660 C.ar  211  TYR211      0.0417
    114  CE2       10.3800   -1.2940   26.0830 C.ar  211  TYR211      0.0417
    115  CZ         9.1250   -0.8680   25.6840 C.ar  211  TYR211      0.1957
    116  OH         8.2330   -1.7810   25.1620 O.3   211  TYR211     -0.2866
    117  N          5.2540    7.5130   19.7450 N.3   219  TYR219     -0.1227
    118  CA         5.4090    7.2550   18.3140 C.3   219  TYR219      0.1736
    119  C          4.1000    6.9880   17.5700 C.2   219  TYR219      0.2596
    120  O          3.3010    6.1430   17.9800 O.2   219  TYR219     -0.2718
    121  CB         6.3410    6.0600   18.0950 C.3   219  TYR219      0.0548
    122  CG         7.5740    6.0790   18.9660 C.ar  219  TYR219     -0.0200
    123  CD1        7.5600    5.5140   20.2440 C.ar  219  TYR219     -0.0009
    124  CD2        8.7500    6.6830   18.5230 C.ar  219  TYR219     -0.0009
    125  CE1        8.6910    5.5540   21.0570 C.ar  219  TYR219      0.0417
    126  CE2        9.8840    6.7280   19.3240 C.ar  219  TYR219      0.0417
    127  CZ         9.8480    6.1610   20.5890 C.ar  219  TYR219      0.1957
    128  OH        10.9760    6.2000   21.3740 O.3   219  TYR219     -0.2866
    129  N          3.8920    7.6980   16.4640 N.am  220  GLY220     -0.1957
    130  CA         2.6860    7.4860   15.6830 C.3   220  GLY220      0.1869
    131  C          2.6500    6.0510   15.1850 C.2   220  GLY220      0.2309
    132  O          3.6760    5.5150   14.7700 O.2   220  GLY220     -0.2863
    133  N          2.0770    3.4480   17.0180 N.3   222  TRP222     -0.1241
    134  CA         2.3510    2.5330   18.1240 C.3   222  TRP222      0.1605
    135  C          1.6540    2.9410   19.4120 C.2   222  TRP222      0.2264
    136  O          1.1420    2.0920   20.1400 O.2   222  TRP222     -0.2867
    137  CB         3.8610    2.4330   18.3640 C.3   222  TRP222      0.0550
    138  CG         4.5600    1.8220   17.2070 C.ar  222  TRP222      0.0003
    139  CD1        4.8170    2.4090   16.0000 C.ar  222  TRP222      0.0946
    140  CD2        4.9680    0.4570   17.0850 C.ar  222  TRP222      0.0152
    141  NE1        5.3490    1.4890   15.1290 N.ar  222  TRP222     -0.2442
    142  CE2        5.4520    0.2820   15.7700 C.ar  222  TRP222      0.0810
    143  CE3        4.9670   -0.6380   17.9590 C.ar  222  TRP222      0.0012
    144  CZ2        5.9290   -0.9460   15.3060 C.ar  222  TRP222      0.0191
    145  CZ3        5.4430   -1.8610   17.4970 C.ar  222  TRP222      0.0001
    146  CH2        5.9160   -2.0040   16.1810 C.ar  222  TRP222      0.0015
    147  N          3.0090    1.2890   24.7420 N.3   301  ILE301     -0.1245
    148  CA         3.4090    0.5570   23.5460 C.3   301  ILE301      0.1561
    149  C          3.0670   -0.9200   23.6410 C.2   301  ILE301      0.2260
    150  O          3.9120   -1.7530   23.9590 O.2   301  ILE301     -0.2867
    151  CB         4.9150    0.7030   23.2690 C.3   301  ILE301      0.0252
    152  CG1        5.2940    2.1860   23.2420 C.3   301  ILE301      0.0019
    153  CG2        5.2550    0.0410   21.9310 C.3   301  ILE301      0.0019
    154  CD1        6.7770    2.4540   23.0150 C.3   301  ILE301      0.0001
@<TRIPOS>BOND
     1    97    96    2
     2    96    95    1
     3    94    95    1
     4    95    98    1
     5    98    99    1
     6    56    55    2
     7    57    55   am
     8    55    54    1
     9    20    19    1
    10    27    26    1
    11    27    28    1
    12    21    19    1
    13    26    23    1
    14   100    99   ar
    15   100   102   ar
    16    99   101   ar
    17    22    23    1
    18    19    18    1
    19    54    51    1
    20    30    29    1
    21    17    16    2
    22    23    24    1
    23    29    28    1
    24    53    52    2
    25   102   104   ar
    26    24    25    2
    27    51    52    1
    28    51    50    1
    29   101   103   ar
    30    16    15    1
    31    18    15    1
    32    64    66   ar
    33    64    63   ar
    34    66    67   ar
    35    15    14    1
    36   104   103   ar
    37    50    40   am
    38    34    33    2
    39    41    40    2
    40    37    35    1
    41    40    39    1
    42    63    62    1
    43    63    65   ar
    44    32    33    1
    45    32    31    1
    46    32    35    1
    47    33    38   am
    48    67    69   ar
    49    67    65   ar
    50    62    59    1
    51    69    71   ar
    52    35    36    1
    53    61    60    2
    54    65    68   ar
    55    38    39    1
    56    60    59    1
    57    39    42    1
    58   132   131    2
    59    59    58    1
    60   141   142   ar
    61   141   139   ar
    62   131   130    1
    63    12    11    1
    64   144   142   ar
    65   144   146   ar
    66    71    70   ar
    67    68    70   ar
    68   130   129    1
    69     9     8    2
    70   142   140   ar
    71    42    43    1
    72   139   138   ar
    73    10    11    1
    74    10     7    1
    75   146   145   ar
    76    11    13    1
    77     8     7    1
    78   129   119   am
    79   133   134    1
    80     7     6    1
    81   140   138   ar
    82   140   143   ar
    83    43    45   ar
    84    43    44   ar
    85   138   137    1
    86    45    47   ar
    87     6     3   am
    88   145   143   ar
    89   119   120    2
    90   119   118    1
    91   121   118    1
    92   121   122    1
    93   134   137    1
    94   134   135    1
    95   118   117    1
    96    44    46   ar
    97    78    80   ar
    98    78    77   ar
    99    47    48   ar
   100   124   122   ar
   101   124   126   ar
   102     3     2    1
   103     3     4    2
   104    80    81   ar
   105     2     5    1
   106     2     1    1
   107   122   123   ar
   108    88    90   ar
   109    88    87   ar
   110    76    77    1
   111    76    73    1
   112    77    79   ar
   113    90    92   ar
   114   126   127   ar
   115   135   136    2
   116    46    48   ar
   117    48    49    1
   118    86    87    1
   119    86    83    1
   120    85    84    2
   121    81    79   ar
   122    87    89   ar
   123   123   125   ar
   124    72    73    1
   125    82    83    1
   126    82    74   am
   127    73    74    1
   128    92    93    1
   129    92    91   ar
   130    84    83    1
   131   127   125   ar
   132   127   128    1
   133    74    75    2
   134    89    91   ar
   135   153   151    1
   136   154   152    1
   137   152   151    1
   138   151   148    1
   139   148   149    1
   140   148   147    1
   141   149   150    2
   142   116   115    1
   143   115   113   ar
   144   115   114   ar
   145   113   111   ar
   146   114   112   ar
   147   111   110   ar
   148   112   110   ar
   149   110   109    1
   150   109   106    1
   151   106   107    1
   152   106   105    1
   153   107   108    2
