@<TRIPOS>MOLECULE
tmp/2iphA00.pdb
 188 178 0 0 0
SMALL
GASTEIGER

@<TRIPOS>ATOM
      1  N         33.5860   -5.4340    3.2150 N.3    14  SER14      -0.1217
      2  CA        34.2510   -5.4650    4.5080 C.3    14  SER14       0.1889
      3  C         33.7210   -6.5920    5.3920 C.2    14  SER14       0.2288
      4  O         33.9900   -6.6330    6.5920 O.2    14  SER14      -0.2866
      5  CB        34.0720   -4.1190    5.2160 C.3    14  SER14       0.2089
      6  OG        32.7010   -3.7900    5.3600 O.3    14  SER14      -0.2183
      7  N         25.7260   -2.6350    5.3900 N.3    30  HIS30      -0.1226
      8  CA        26.9350   -1.9400    5.8170 C.3    30  HIS30       0.1752
      9  C         28.2470   -2.4010    5.1640 C.2    30  HIS30       0.2595
     10  O         29.1400   -1.5830    4.9250 O.2    30  HIS30      -0.2718
     11  CB        27.0720   -2.0400    7.3410 C.3    30  HIS30       0.0759
     12  CG        28.2800   -1.3420    7.8870 C.ar   30  HIS30       0.0818
     13  ND1       28.3910    0.0310    7.9290 N.ar   30  HIS30      -0.2268
     14  CD2       29.4360   -1.8290    8.3990 C.ar   30  HIS30       0.1154
     15  CE1       29.5630    0.3610    8.4430 C.ar   30  HIS30       0.1986
     16  NE2       30.2170   -0.7500    8.7360 N.ar   30  HIS30      -0.2212
     17  N         28.3680   -3.6920    4.8570 N.am   31  VAL31      -0.1980
     18  CA        29.6120   -4.2040    4.2780 C.3    31  VAL31       0.1595
     19  C         29.7680   -4.0790    2.7620 C.2    31  VAL31       0.2287
     20  O         30.8510   -4.3250    2.2290 O.2    31  VAL31      -0.2864
     21  CB        29.8390   -5.6970    4.6510 C.3    31  VAL31       0.0276
     22  CG1       29.6890   -5.8890    6.1510 C.3    31  VAL31       0.0022
     23  CG2       28.8680   -6.5850    3.8890 C.3    31  VAL31       0.0022
     24  N         19.2130   -2.6750    6.6850 N.3    54  GLU54      -0.1245
     25  CA        20.5160   -3.3160    6.7950 C.3    54  GLU54       0.1567
     26  C         20.5870   -4.6700    6.1090 C.2    54  GLU54       0.2260
     27  O         21.5980   -5.3650    6.2020 O.2    54  GLU54      -0.2867
     28  CB        20.9200   -3.4630    8.2620 C.3    54  GLU54       0.0388
     29  CG        21.5550   -2.2110    8.8400 C.3    54  GLU54       0.1160
     30  CD        22.6830   -1.6830    7.9720 C.2    54  GLU54       0.3649
     31  OE1       23.6460   -2.4370    7.6960 O.co2  54  GLU54      -0.2457
     32  OE2       22.6000   -0.5090    7.5600 O.co2  54  GLU54      -0.2457
     33  N         15.4230   -1.8280   15.4420 N.3   107  MET107     -0.1230
     34  CA        16.4270   -1.3260   16.3620 C.3   107  MET107      0.1702
     35  C         17.1870   -0.1390   15.8020 C.2   107  MET107      0.2592
     36  O         17.1590    0.1210   14.6020 O.2   107  MET107     -0.2718
     37  CB        17.4090   -2.4460   16.7010 C.3   107  MET107      0.0401
     38  CG        16.7410   -3.6930   17.2510 C.3   107  MET107      0.0596
     39  SD        17.8970   -5.0680   17.4130 S.3   107  MET107     -0.1393
     40  CE        18.7450   -4.6230   18.9020 C.3   107  MET107      0.0692
     41  N         17.8590    0.5830   16.6920 N.am  108  ARG108     -0.1966
     42  CA        18.6630    1.7360   16.3170 C.3   108  ARG108      0.1729
     43  C         20.0760    1.4200   16.7860 C.2   108  ARG108      0.2616
     44  O         20.3650    1.4270   17.9820 O.2   108  ARG108     -0.2715
     45  CB        18.1460    3.0010   17.0100 C.3   108  ARG108      0.0348
     46  CG        18.9190    4.2670   16.6620 C.3   108  ARG108      0.0492
     47  CD        18.7630    4.6520   15.1950 C.3   108  ARG108      0.2205
     48  NE        17.3620    4.8420   14.8290 N.pl3 108  ARG108     -0.0865
     49  CZ        16.9500    5.3340   13.6640 C.cat 108  ARG108      0.5346
     50  NH1       17.8310    5.6950   12.7400 N.pl3 108  ARG108      0.1354
     51  NH2       15.6530    5.4560   13.4180 N.pl3 108  ARG108      0.1354
     52  N         20.9570    1.1340   15.8370 N.am  109  ILE109     -0.1963
     53  CA        22.3280    0.7790   16.1640 C.3   109  ILE109      0.1727
     54  C         23.3070    1.7350   15.5000 C.2   109  ILE109      0.2616
     55  O         23.3540    1.8430   14.2740 O.2   109  ILE109     -0.2715
     56  CB        22.6130   -0.6800   15.7250 C.3   109  ILE109      0.0290
     57  CG1       21.5730   -1.6060   16.3680 C.3   109  ILE109      0.0022
     58  CG2       24.0160   -1.0940   16.1370 C.3   109  ILE109      0.0023
     59  CD1       21.7120   -3.0830   16.0050 C.3   109  ILE109      0.0001
     60  N         24.0820    2.4280   16.3270 N.am  110  GLN110     -0.1977
     61  CA        25.0540    3.4020   15.8530 C.3   110  GLN110      0.1601
     62  C         24.4210    4.3350   14.8240 C.2   110  GLN110      0.2287
     63  O         25.0170    4.6430   13.7890 O.2   110  GLN110     -0.2864
     64  CB        26.2730    2.6940   15.2610 C.3   110  GLN110      0.0394
     65  CG        27.0130    1.8180   16.2620 C.3   110  GLN110      0.0908
     66  CD        28.2700    1.2030   15.6770 C.2   110  GLN110      0.2608
     67  OE1       28.9320    0.3860   16.3150 O.2   110  GLN110     -0.2717
     68  NE2       28.6090    1.6010   14.4550 N.am  110  GLN110     -0.0878
     69  N         21.9980    3.7890   12.8190 N.3   112  ARG112     -0.1245
     70  CA        21.3390    3.1000   11.7200 C.3   112  ARG112      0.1563
     71  C         20.0840    2.3670   12.1730 C.2   112  ARG112      0.2260
     72  O         20.0490    1.7770   13.2540 O.2   112  ARG112     -0.2867
     73  CB        22.3050    2.1020   11.0710 C.3   112  ARG112      0.0307
     74  CG        23.5760    2.7380   10.5240 C.3   112  ARG112      0.0489
     75  CD        24.6350    1.6940   10.2100 C.3   112  ARG112      0.2205
     76  NE        24.4080    0.9730    8.9590 N.pl3 112  ARG112     -0.0865
     77  CZ        24.6940    1.4560    7.7530 C.cat 112  ARG112      0.5346
     78  NH1       25.2170    2.6680    7.6290 N.pl3 112  ARG112      0.1354
     79  NH2       24.4700    0.7240    6.6690 N.pl3 112  ARG112      0.1354
     80  N         17.9410   -0.6240   12.0760 N.3   114  VAL114     -0.1245
     81  CA        18.1480   -2.0190   11.7350 C.3   114  VAL114      0.1561
     82  C         16.9520   -2.8920   12.0640 C.2   114  VAL114      0.2260
     83  O         16.6090   -3.0840   13.2320 O.2   114  VAL114     -0.2867
     84  CB        19.3830   -2.5890   12.4690 C.3   114  VAL114      0.0252
     85  CG1       19.6130   -4.0390   12.0610 C.3   114  VAL114      0.0019
     86  CG2       20.6080   -1.7460   12.1590 C.3   114  VAL114      0.0019
     87  N         17.3080  -10.1930   17.5940 N.3   118  SER118     -0.1217
     88  CA        18.3960  -10.3710   18.5430 C.3   118  SER118      0.1889
     89  C         18.4600  -11.8360   18.9390 C.2   118  SER118      0.2288
     90  O         17.4940  -12.5840   18.7650 O.2   118  SER118     -0.2866
     91  CB        18.1780   -9.5050   19.7890 C.3   118  SER118      0.2089
     92  OG        17.0260   -9.9160   20.5010 O.3   118  SER118     -0.2183
     93  N         32.4970  -12.9530   24.9050 N.3   128  LYS128     -0.1245
     94  CA        33.4200  -11.8730   24.5910 C.3   128  LYS128      0.1561
     95  C         34.6890  -12.4780   24.0080 C.2   128  LYS128      0.2260
     96  O         35.2420  -13.4310   24.5580 O.2   128  LYS128     -0.2867
     97  CB        33.7550  -11.0700   25.8530 C.3   128  LYS128      0.0271
     98  CG        34.7120   -9.9070   25.6180 C.3   128  LYS128      0.0035
     99  CD        34.1630   -8.9250   24.5910 C.3   128  LYS128      0.0206
    100  CE        35.1380   -7.7860   24.3350 C.3   128  LYS128      0.1093
    101  NZ        34.6530   -6.8650   23.2670 N.3   128  LYS128     -0.1314
    102  N         31.3050  -13.1930   18.0540 N.3   134  THR134     -0.1203
    103  CA        31.4570  -12.5150   16.7760 C.3   134  THR134      0.1994
    104  C         32.3040  -11.2650   16.9550 C.2   134  THR134      0.2618
    105  O         32.3940  -10.7150   18.0540 O.2   134  THR134     -0.2717
    106  CB        30.0870  -12.1190   16.2020 C.3   134  THR134      0.1784
    107  OG1       29.4230  -11.2370   17.1180 O.3   134  THR134     -0.2211
    108  CG2       29.2290  -13.3510   15.9920 C.3   134  THR134      0.0376
    109  N         32.9280  -10.8190   15.8730 N.am  135  ILE135     -0.1966
    110  CA        33.7850   -9.6440   15.9270 C.3   135  ILE135      0.1712
    111  C         33.5960   -8.7820   14.6950 C.2   135  ILE135      0.2458
    112  O         32.9490   -9.1960   13.7330 O.2   135  ILE135     -0.2730
    113  CB        35.2750  -10.0530   15.9830 C.3   135  ILE135      0.0289
    114  CG1       35.6370  -10.8500   14.7270 C.3   135  ILE135      0.0022
    115  CG2       35.5460  -10.8780   17.2330 C.3   135  ILE135      0.0023
    116  CD1       37.0930  -11.2750   14.6550 C.3   135  ILE135      0.0001
    117  N         34.1340   -7.5540   14.7200 N.am  136  PRO136     -0.2716
    118  CA        33.9940   -6.6920   13.5480 C.3   136  PRO136      0.1536
    119  C         34.6590   -7.4810   12.4270 C.2   136  PRO136      0.2599
    120  O         35.7170   -8.0860   12.6330 O.2   136  PRO136     -0.2715
    121  CB        34.7950   -5.4530   13.9360 C.3   136  PRO136      0.0310
    122  CG        34.5920   -5.3840   15.4200 C.3   136  PRO136      0.0237
    123  CD        34.7820   -6.8300   15.8300 C.3   136  PRO136      0.0939
    124  N         34.0350   -7.4900   11.2590 N.am  137  GLY137     -0.1955
    125  CA        34.5760   -8.2410   10.1410 C.3   137  GLY137      0.1869
    126  C         33.6700   -9.4190    9.8300 C.2   137  GLY137      0.2309
    127  O         33.6950   -9.9550    8.7210 O.2   137  GLY137     -0.2863
    128  N         30.2870   -9.2720    9.9130 N.3   139  CYS139     -0.1235
    129  CA        28.9620   -8.9400    9.3940 C.3   139  CYS139      0.1677
    130  C         28.7220   -9.5410    8.0220 C.2   139  CYS139      0.2270
    131  O         29.6230   -9.5910    7.1790 O.2   139  CYS139     -0.2867
    132  CB        28.7310   -7.4320    9.3510 C.3   139  CYS139      0.0956
    133  SG        28.4190   -6.7250   10.9840 S.3   139  CYS139     -0.0801
    134  N         24.4290  -11.5090    9.8090 N.3   157  HIS157     -0.1226
    135  CA        25.0000  -10.8410   10.9790 C.3   157  HIS157      0.1752
    136  C         25.1690   -9.3360   10.8450 C.2   157  HIS157      0.2596
    137  O         25.7610   -8.8560    9.8810 O.2   157  HIS157     -0.2718
    138  CB        26.3460  -11.4580   11.3460 C.3   157  HIS157      0.0759
    139  CG        26.8580  -10.9950   12.6720 C.ar  157  HIS157      0.0818
    140  ND1       26.2040  -11.2730   13.8540 N.ar  157  HIS157     -0.2268
    141  CD2       27.9280  -10.2350   13.0010 C.ar  157  HIS157      0.1154
    142  CE1       26.8490  -10.6990   14.8540 C.ar  157  HIS157      0.1986
    143  NE2       27.8990  -10.0630   14.3640 N.ar  157  HIS157     -0.2212
    144  N         24.6830   -8.5960   11.8420 N.am  158  ALA158     -0.1966
    145  CA        24.7570   -7.1420   11.8060 C.3   158  ALA158      0.1728
    146  C         25.3680   -6.4550   13.0290 C.2   158  ALA158      0.2616
    147  O         25.9550   -5.3830   12.8920 O.2   158  ALA158     -0.2715
    148  CB        23.3520   -6.5670   11.5460 C.3   158  ALA158      0.0334
    149  N         25.2430   -7.0510   14.2120 N.am  159  ALA159     -0.1963
    150  CA        25.7700   -6.4060   15.4130 C.3   159  ALA159      0.1728
    151  C         25.8670   -7.3170   16.6280 C.2   159  ALA159      0.2616
    152  O         25.4000   -8.4510   16.6140 O.2   159  ALA159     -0.2715
    153  CB        24.8940   -5.1920   15.7580 C.3   159  ALA159      0.0334
    154  N         26.4850   -6.8020   17.6870 N.am  160  ALA160     -0.1963
    155  CA        26.6310   -7.5480   18.9300 C.3   160  ALA160      0.1728
    156  C         26.8910   -6.5590   20.0550 C.2   160  ALA160      0.2617
    157  O         27.3570   -5.4480   19.8140 O.2   160  ALA160     -0.2715
    158  CB        27.7900   -8.5340   18.8290 C.3   160  ALA160      0.0334
    159  N         26.5730   -6.9560   21.2800 N.am  161  THR161     -0.1937
    160  CA        26.8120   -6.0830   22.4220 C.3   161  THR161      0.2028
    161  C         28.3020   -6.0880   22.7300 C.2   161  THR161      0.2642
    162  O         29.0490   -6.9040   22.1920 O.2   161  THR161     -0.2714
    163  CB        26.0500   -6.5620   23.6600 C.3   161  THR161      0.1808
    164  OG1       26.3110   -7.9560   23.8710 O.3   161  THR161     -0.2208
    165  CG2       24.5540   -6.3360   23.4800 C.3   161  THR161      0.0379
    166  N         28.7290   -5.1790   23.6030 N.am  162  LYS162     -0.1977
    167  CA        30.1350   -5.0840   23.9750 C.3   162  LYS162      0.1596
    168  C         30.6440   -6.3760   24.6040 C.2   162  LYS162      0.2287
    169  O         31.7550   -6.8160   24.3090 O.2   162  LYS162     -0.2864
    170  CB        30.3420   -3.9080   24.9340 C.3   162  LYS162      0.0298
    171  CG        30.1170   -2.5530   24.2780 C.3   162  LYS162      0.0038
    172  CD        30.3220   -1.4080   25.2560 C.3   162  LYS162      0.0206
    173  CE        30.2370   -0.0630   24.5460 C.3   162  LYS162      0.1093
    174  NZ        28.9310    0.1270   23.8530 N.3   162  LYS162     -0.1314
    175  N         25.1320  -11.0260   23.2860 N.3   166  THR166     -0.1218
    176  CA        23.9010  -10.8160   22.5310 C.3   166  THR166      0.1862
    177  C         24.2720  -10.3630   21.1260 C.2   166  THR166      0.2287
    178  O         25.0990   -9.4670   20.9560 O.2   166  THR166     -0.2866
    179  CB        23.0060   -9.7390   23.1750 C.3   166  THR166      0.1770
    180  OG1       22.6830  -10.1280   24.5140 O.3   166  THR166     -0.2211
    181  CG2       21.7150   -9.5770   22.3820 C.3   166  THR166      0.0375
    182  N         22.8100   -9.6340   16.8480 N.3   168  VAL168     -0.1245
    183  CA        21.6580   -9.2130   16.0630 C.3   168  VAL168      0.1561
    184  C         21.8880   -9.5060   14.5930 C.2   168  VAL168      0.2260
    185  O         22.9540   -9.2100   14.0590 O.2   168  VAL168     -0.2867
    186  CB        21.3980   -7.6970   16.2010 C.3   168  VAL168      0.0252
    187  CG1       20.3130   -7.2550   15.2150 C.3   168  VAL168      0.0019
    188  CG2       20.9860   -7.3740   17.6200 C.3   168  VAL168      0.0019
@<TRIPOS>BOND
     1    20    19    2
     2    19    18    1
     3     1     2    1
     4    23    21    1
     5    18    21    1
     6    18    17    1
     7     2     5    1
     8     2     3    1
     9    21    22    1
    10    17     9   am
    11    10     9    2
    12     9     8    1
    13     5     6    1
    14     7     8    1
    15     3     4    2
    16     8    11    1
    17    26    27    2
    18    26    25    1
    19    79    77    1
    20    24    25    1
    21    25    28    1
    22   131   130    2
    23    11    12    1
    24    32    30   ar
    25    78    77    1
    26    31    30   ar
    27    77    76    2
    28    12    13   ar
    29    12    14   ar
    30    13    15   ar
    31    30    29    1
    32   130   129    1
    33    28    29    1
    34    14    16   ar
    35    15    16   ar
    36   127   126    2
    37    76    75    1
    38   132   129    1
    39   132   133    1
    40   129   128    1
    41   134   135    1
    42   126   125    1
    43   137   136    2
    44   125   124    1
    45    75    74    1
    46    74    73    1
    47   136   135    1
    48   136   144   am
    49   135   138    1
    50    73    70    1
    51   124   119   am
    52   138   139    1
    53   148   145    1
    54    70    71    1
    55    70    69    1
    56    81    82    1
    57    81    80    1
    58    81    84    1
    59   145   144    1
    60   145   146    1
    61    85    84    1
    62    82    83    2
    63    86    84    1
    64    71    72    2
    65   119   120    2
    66   119   118    1
    67   139   141   ar
    68   139   140   ar
    69    50    49    1
    70   147   146    2
    71   141   143   ar
    72   146   149   am
    73    51    49    1
    74   118   121    1
    75   118   117    1
    76    49    48    2
    77   112   111    2
    78    63    62    2
    79   140   142   ar
    80   121   122    1
    81   185   184    2
    82   149   150    1
    83    55    54    2
    84   143   142   ar
    85    68    66   am
    86   184   183    1
    87    36    35    2
    88   116   114    1
    89   111   117   am
    90   111   110    1
    91   117   123    1
    92   114   113    1
    93    62    61    1
    94    48    47    1
    95    47    46    1
    96   187   186    1
    97    64    61    1
    98    64    65    1
    99   150   153    1
   100   150   151    1
   101   122   123    1
   102    33    34    1
   103    54    53    1
   104    54    60   am
   105    66    65    1
   106    66    67    2
   107    56    58    1
   108    56    53    1
   109    56    57    1
   110    35    34    1
   111    35    41   am
   112    52    53    1
   113    52    43   am
   114    61    60    1
   115   109   110    1
   116   109   104   am
   117   110   113    1
   118   113   115    1
   119   108   106    1
   120    59    57    1
   121   183   186    1
   122   183   182    1
   123   186   188    1
   124   106   103    1
   125   106   107    1
   126    42    41    1
   127    42    43    1
   128    42    45    1
   129    34    37    1
   130   152   151    2
   131   151   154   am
   132    46    45    1
   133    37    38    1
   134   103   104    1
   135   103   102    1
   136    43    44    2
   137   104   105    2
   138    38    39    1
   139    39    40    1
   140    87    88    1
   141   154   155    1
   142    88    89    1
   143    88    91    1
   144    90    89    2
   145   158   155    1
   146   155   156    1
   147    91    92    1
   148   157   156    2
   149   156   159   am
   150   178   177    2
   151   177   176    1
   152   159   160    1
   153   162   161    2
   154   181   179    1
   155   160   161    1
   156   160   163    1
   157   176   179    1
   158   176   175    1
   159   161   166   am
   160   179   180    1
   161   101   100    1
   162   165   163    1
   163   166   167    1
   164   163   164    1
   165   174   173    1
   166   167   168    1
   167   167   170    1
   168    95    96    2
   169    95    94    1
   170   171   170    1
   171   171   172    1
   172   169   168    2
   173   100    99    1
   174   173   172    1
   175    94    93    1
   176    94    97    1
   177    99    98    1
   178    98    97    1
