@<TRIPOS>MOLECULE
tmp/2ipiA00.pdb
 263 260 0 0 0
SMALL
GASTEIGER

@<TRIPOS>ATOM
      1  N         32.4070  191.6660   18.1950 N.3    20  PHE20      -0.1241
      2  CA        30.9710  191.8280   18.4030 C.3    20  PHE20       0.1605
      3  C         30.1900  191.4200   17.1570 C.2    20  PHE20       0.2264
      4  O         29.0610  190.9340   17.2800 O.2    20  PHE20      -0.2867
      5  CB        30.7100  193.2900   18.7660 C.3    20  PHE20       0.0534
      6  CG        29.2160  193.5790   18.8840 C.ar   20  PHE20      -0.0203
      7  CD1       28.6460  194.6060   18.1600 C.ar   20  PHE20      -0.0042
      8  CD2       28.4490  192.7870   19.7220 C.ar   20  PHE20      -0.0042
      9  CE1       27.2890  194.8710   18.2660 C.ar   20  PHE20      -0.0003
     10  CE2       27.0960  193.0560   19.8360 C.ar   20  PHE20      -0.0003
     11  CZ        26.5330  194.0880   19.1110 C.ar   20  PHE20      -0.0000
     12  N         34.1860  195.8350   20.0160 N.3    61  HIS61      -0.1241
     13  CA        32.9470  196.3270   19.3900 C.3    61  HIS61       0.1621
     14  C         33.1590  196.9450   18.0140 C.2    61  HIS61       0.2264
     15  O         32.1880  197.4570   17.4310 O.2    61  HIS61      -0.2867
     16  CB        32.1870  197.3100   20.2910 C.3    61  HIS61       0.0745
     17  CG        31.2510  196.5920   21.2250 C.ar   61  HIS61       0.0817
     18  ND1       29.8800  196.4820   21.0480 N.ar   61  HIS61      -0.2268
     19  CD2       31.5310  195.9240   22.3690 C.ar   61  HIS61       0.1154
     20  CE1       29.3660  195.7840   22.0450 C.ar   61  HIS61       0.1986
     21  NE2       30.3540  195.4380   22.8590 N.ar   61  HIS61      -0.2212
     22  N         32.8250  197.9820   14.5940 N.3    63  PHE63      -0.1241
     23  CA        31.7380  197.6240   13.6580 C.3    63  PHE63       0.1605
     24  C         32.2400  196.9690   12.3790 C.2    63  PHE63       0.2264
     25  O         31.5220  196.2090   11.7310 O.2    63  PHE63      -0.2867
     26  CB        30.9300  198.8730   13.2740 C.3    63  PHE63       0.0534
     27  CG        30.0080  199.3670   14.3820 C.ar   63  PHE63      -0.0203
     28  CD1       29.9760  200.7030   14.7260 C.ar   63  PHE63      -0.0042
     29  CD2       29.1920  198.4530   15.0290 C.ar   63  PHE63      -0.0042
     30  CE1       29.1350  201.1450   15.7340 C.ar   63  PHE63      -0.0003
     31  CE2       28.3610  198.8810   16.0490 C.ar   63  PHE63      -0.0003
     32  CZ        28.3360  200.2270   16.3820 C.ar   63  PHE63      -0.0000
     33  N         26.7640  204.7240   25.4820 N.3   120  VAL120     -0.1231
     34  CA        25.6470  204.0240   26.0880 C.3   120  VAL120      0.1692
     35  C         25.9390  202.5620   26.3800 C.2   120  VAL120      0.2592
     36  O         25.6310  202.0590   27.4700 O.2   120  VAL120     -0.2718
     37  CB        24.3980  204.0600   25.1760 C.3   120  VAL120      0.0266
     38  CG1       23.1690  203.6550   25.9700 C.3   120  VAL120      0.0020
     39  CG2       24.2180  205.4310   24.5600 C.3   120  VAL120      0.0020
     40  N         26.5010  201.8020   25.4440 N.am  121  CYS121     -0.1970
     41  CA        26.4850  200.3470   25.6790 C.3   121  CYS121      0.1712
     42  C         27.4590  199.9020   26.7680 C.2   121  CYS121      0.2296
     43  O         28.6510  200.2250   26.7070 O.2   121  CYS121     -0.2864
     44  CB        26.7370  199.6220   24.3520 C.3   121  CYS121      0.0983
     45  SG        25.9700  200.3800   22.8970 S.3   121  CYS121     -0.0798
     46  N         30.8670  209.1810   22.5580 N.3   135  TYR135     -0.1241
     47  CA        29.9700  210.1420   23.1660 C.3   135  TYR135      0.1605
     48  C         28.7840  209.3770   23.7420 C.2   135  TYR135      0.2264
     49  O         28.5450  208.2170   23.4110 O.2   135  TYR135     -0.2867
     50  CB        29.5050  211.1560   22.1110 C.3   135  TYR135      0.0534
     51  CG        28.2900  210.6850   21.3410 C.ar  135  TYR135     -0.0201
     52  CD1       27.0310  211.1990   21.6390 C.ar  135  TYR135     -0.0009
     53  CD2       28.3780  209.7360   20.3330 C.ar  135  TYR135     -0.0009
     54  CE1       25.9140  210.7750   20.9460 C.ar  135  TYR135      0.0417
     55  CE2       27.2650  209.3030   19.6350 C.ar  135  TYR135      0.0417
     56  CZ        26.0330  209.8340   19.9490 C.ar  135  TYR135      0.1957
     57  OH        24.9170  209.4240   19.2640 O.3   135  TYR135     -0.2866
     58  N         14.6190  205.9340   17.2500 N.3   266  TYR266     -0.1241
     59  CA        14.8580  204.7200   16.4880 C.3   266  TYR266      0.1605
     60  C         13.8050  204.6170   15.3720 C.2   266  TYR266      0.2264
     61  O         12.6740  204.2470   15.6600 O.2   266  TYR266     -0.2867
     62  CB        14.8190  203.4510   17.3340 C.3   266  TYR266      0.0534
     63  CG        15.8160  203.3960   18.4630 C.ar  266  TYR266     -0.0201
     64  CD1       15.3940  203.5480   19.7820 C.ar  266  TYR266     -0.0009
     65  CD2       17.1690  203.1980   18.2120 C.ar  266  TYR266     -0.0009
     66  CE1       16.3020  203.4980   20.8250 C.ar  266  TYR266      0.0417
     67  CE2       18.0850  203.1490   19.2500 C.ar  266  TYR266      0.0417
     68  CZ        17.6370  203.3000   20.5490 C.ar  266  TYR266      0.1957
     69  OH        18.5450  203.2480   21.5730 O.3   266  TYR266     -0.2866
     70  N         20.2330  196.5000   27.7550 N.3   324  LYS324     -0.1231
     71  CA        19.1520  196.4390   26.7800 C.3   324  LYS324      0.1693
     72  C         19.6830  196.5930   25.3580 C.2   324  LYS324      0.2592
     73  O         19.0900  197.2680   24.5200 O.2   324  LYS324     -0.2718
     74  CB        18.1080  197.5190   27.0700 C.3   324  LYS324      0.0285
     75  CG        17.3400  197.3080   28.3660 C.3   324  LYS324      0.0035
     76  CD        16.3120  198.4050   28.5840 C.3   324  LYS324      0.0206
     77  CE        15.5550  198.2030   29.8860 C.3   324  LYS324      0.1093
     78  NZ        14.5530  199.2790   30.1180 N.3   324  LYS324     -0.1314
     79  N         20.8280  195.9540   25.0850 N.am  325  PHE325     -0.1962
     80  CA        21.3610  195.8930   23.7260 C.3   325  PHE325      0.1771
     81  C         21.6210  194.4370   23.3290 C.2   325  PHE325      0.2620
     82  O         22.6230  194.1050   22.7180 O.2   325  PHE325     -0.2715
     83  CB        22.6320  196.7200   23.5970 C.3   325  PHE325      0.0574
     84  CG        22.5760  198.0320   24.3670 C.ar  325  PHE325     -0.0200
     85  CD1       22.8500  198.0790   25.7250 C.ar  325  PHE325     -0.0042
     86  CD2       22.2360  199.1970   23.7040 C.ar  325  PHE325     -0.0042
     87  CE1       22.7810  199.2850   26.4020 C.ar  325  PHE325     -0.0003
     88  CE2       22.1860  200.4010   24.3830 C.ar  325  PHE325     -0.0003
     89  CZ        22.4620  200.4490   25.7340 C.ar  325  PHE325     -0.0000
     90  N         20.6720  193.5830   23.7070 N.am  326  ASP326     -0.1957
     91  CA        20.7180  192.1490   23.4560 C.3   326  ASP326      0.1840
     92  C         20.8140  191.8470   21.9660 C.2   326  ASP326      0.2623
     93  O         19.9490  192.2680   21.1860 O.2   326  ASP326     -0.2715
     94  CB        19.4700  191.4800   24.0470 C.3   326  ASP326      0.1450
     95  CG        19.3060  190.0150   23.7130 C.2   326  ASP326      0.3671
     96  OD1       19.2900  189.1770   24.6480 O.co2 326  ASP326     -0.2456
     97  OD2       19.1690  189.6540   22.5240 O.co2 326  ASP326     -0.2456
     98  N         21.8380  191.0940   21.5660 N.am  327  THR327     -0.1937
     99  CA        21.9820  190.7450   20.1480 C.3   327  THR327      0.2028
    100  C         20.9390  189.7380   19.6920 C.2   327  THR327      0.2642
    101  O         20.4970  189.7490   18.5410 O.2   327  THR327     -0.2714
    102  CB        23.3950  190.2020   19.8690 C.3   327  THR327      0.1808
    103  OG1       23.8550  190.7290   18.6210 O.3   327  THR327     -0.2208
    104  CG2       23.3710  188.6870   19.7530 C.3   327  THR327      0.0379
    105  N         20.4950  188.8420   20.5740 N.am  328  GLY328     -0.1954
    106  CA        19.4760  187.8580   20.2820 C.3   328  GLY328      0.1869
    107  C         19.7700  186.9650   19.0980 C.2   328  GLY328      0.2309
    108  O         18.8520  186.5470   18.3860 O.2   328  GLY328     -0.2863
    109  N         21.0940  187.5880   16.2640 N.3   330  PHE330     -0.1241
    110  CA        21.3310  188.3710   15.0500 C.3   330  PHE330      0.1605
    111  C         22.6250  189.1640   15.2230 C.2   330  PHE330      0.2264
    112  O         22.5910  190.3220   15.6160 O.2   330  PHE330     -0.2867
    113  CB        20.1760  189.3070   14.7360 C.3   330  PHE330      0.0534
    114  CG        18.8000  188.6760   14.8360 C.ar  330  PHE330     -0.0203
    115  CD1       18.2040  188.0480   13.7650 C.ar  330  PHE330     -0.0042
    116  CD2       18.1240  188.7230   16.0500 C.ar  330  PHE330     -0.0042
    117  CE1       16.9480  187.4780   13.8630 C.ar  330  PHE330     -0.0003
    118  CE2       16.8580  188.1790   16.1620 C.ar  330  PHE330     -0.0003
    119  CZ        16.2760  187.5570   15.0750 C.ar  330  PHE330     -0.0000
    120  N         26.1730  192.5860   11.3190 N.3   333  THR333     -0.1218
    121  CA        25.7600  193.9600   11.0940 C.3   333  THR333      0.1862
    122  C         26.6140  194.7050   10.0630 C.2   333  THR333      0.2287
    123  O         27.7770  194.4170    9.8210 O.2   333  THR333     -0.2866
    124  CB        25.8100  194.8210   12.3800 C.3   333  THR333      0.1770
    125  OG1       27.1940  194.9550   12.7630 O.3   333  THR333     -0.2211
    126  CG2       25.0900  194.1730   13.5450 C.3   333  THR333      0.0375
    127  N         13.5990  192.9810    2.6070 N.3   361  GLN361     -0.1231
    128  CA        13.5920  191.6520    3.2610 C.3   361  GLN361      0.1698
    129  C         14.5310  191.6720    4.4550 C.2   361  GLN361      0.2592
    130  O         14.9060  190.6380    4.9930 O.2   361  GLN361     -0.2718
    131  CB        13.8930  190.5320    2.2690 C.3   361  GLN361      0.0381
    132  CG        13.2050  189.2230    2.6120 C.3   361  GLN361      0.0905
    133  CD        11.8400  189.0560    1.9570 C.2   361  GLN361      0.2608
    134  OE1       11.6100  189.5250    0.8410 O.2   361  GLN361     -0.2717
    135  NE2       10.9280  188.4020    2.6660 N.am  361  GLN361     -0.0878
    136  N         14.9040  192.8850    4.8860 N.am  362  VAL362     -0.1966
    137  CA        15.9150  193.0450    5.9220 C.3   362  VAL362      0.1727
    138  C         15.5250  194.0130    7.0410 C.2   362  VAL362      0.2616
    139  O         14.7240  194.9290    6.8610 O.2   362  VAL362     -0.2715
    140  CB        17.2510  193.5670    5.3460 C.3   362  VAL362      0.0290
    141  CG1       17.3700  193.3850    3.8430 C.3   362  VAL362      0.0023
    142  CG2       17.4170  195.0410    5.7040 C.3   362  VAL362      0.0023
    143  N         16.1370  193.7860    8.1970 N.am  363  TRP363     -0.1974
    144  CA        15.9750  194.5290    9.4330 C.3   363  TRP363      0.1640
    145  C         16.7950  195.8140    9.4600 C.2   363  TRP363      0.2290
    146  O         17.8810  195.8290   10.0500 O.2   363  TRP363     -0.2864
    147  CB        16.3970  193.6550   10.6220 C.3   363  TRP363      0.0576
    148  CG        15.3590  193.5620   11.6920 C.ar  363  TRP363      0.0006
    149  CD1       15.4040  194.1000   12.9420 C.ar  363  TRP363      0.0946
    150  CD2       14.1050  192.8700   11.5910 C.ar  363  TRP363      0.0152
    151  NE1       14.2500  193.7860   13.6280 N.ar  363  TRP363     -0.2442
    152  CE2       13.4380  193.0320   12.8180 C.ar  363  TRP363      0.0810
    153  CE3       13.4880  192.1350   10.5800 C.ar  363  TRP363      0.0012
    154  CZ2       12.1800  192.4860   13.0680 C.ar  363  TRP363      0.0191
    155  CZ3       12.2370  191.5950   10.8320 C.ar  363  TRP363      0.0001
    156  CH2       11.5990  191.7730   12.0650 C.ar  363  TRP363      0.0015
    157  N         17.2700  200.1870   10.0060 N.3   365  GLU365     -0.1245
    158  CA        16.7660  201.2920   10.8180 C.3   365  GLU365      0.1567
    159  C         17.7210  202.4860   10.7810 C.2   365  GLU365      0.2260
    160  O         18.9100  202.3410   10.5170 O.2   365  GLU365     -0.2867
    161  CB        16.5070  200.8680   12.2590 C.3   365  GLU365      0.0388
    162  CG        17.6750  200.2660   13.0320 C.3   365  GLU365      0.1160
    163  CD        18.0700  201.2060   14.1670 C.2   365  GLU365      0.3649
    164  OE1       18.2820  200.7730   15.3200 O.co2 365  GLU365     -0.2457
    165  OE2       18.1500  202.4090   13.8340 O.co2 365  GLU365     -0.2457
    166  N         18.7550  205.6860   13.2640 N.3   367  SER367     -0.1217
    167  CA        18.7070  206.3020   14.5880 C.3   367  SER367      0.1889
    168  C         19.1500  207.7550   14.5130 C.2   367  SER367      0.2288
    169  O         20.1810  208.0900   13.9180 O.2   367  SER367     -0.2866
    170  CB        19.5960  205.5200   15.5470 C.3   367  SER367      0.2089
    171  OG        19.1520  204.1920   15.7040 O.3   367  SER367     -0.2183
    172  N         20.2310  210.9310   16.9310 N.3   369  TYR369     -0.1241
    173  CA        20.6460  211.3130   18.2740 C.3   369  TYR369      0.1605
    174  C         20.6560  212.8180   18.4870 C.2   369  TYR369      0.2264
    175  O         21.2450  213.5630   17.7030 O.2   369  TYR369     -0.2867
    176  CB        22.0600  210.7720   18.5850 C.3   369  TYR369      0.0534
    177  CG        22.1100  209.2760   18.4250 C.ar  369  TYR369     -0.0201
    178  CD1       22.2040  208.6790   17.1600 C.ar  369  TYR369     -0.0009
    179  CD2       22.0500  208.4570   19.5360 C.ar  369  TYR369     -0.0009
    180  CE1       22.2430  207.3030   17.0310 C.ar  369  TYR369      0.0417
    181  CE2       22.0880  207.0820   19.4110 C.ar  369  TYR369      0.0417
    182  CZ        22.1820  206.5080   18.1580 C.ar  369  TYR369      0.1957
    183  OH        22.2250  205.1350   18.0520 O.3   369  TYR369     -0.2866
    184  N         23.0410  207.2190   12.8360 N.3   395  TRP395     -0.1241
    185  CA        23.7010  205.9310   12.6460 C.3   395  TRP395      0.1605
    186  C         22.7620  204.9690   11.9310 C.2   395  TRP395      0.2264
    187  O         21.7270  204.6210   12.5050 O.2   395  TRP395     -0.2867
    188  CB        24.1130  205.3140   13.9800 C.3   395  TRP395      0.0550
    189  CG        24.9370  204.0570   13.9210 C.ar  395  TRP395      0.0003
    190  CD1       26.2030  203.9600   13.4260 C.ar  395  TRP395      0.0946
    191  CD2       24.5710  202.7430   14.3610 C.ar  395  TRP395      0.0152
    192  NE1       26.6430  202.6620   13.5340 N.ar  395  TRP395     -0.2442
    193  CE2       25.6600  201.8930   14.1050 C.ar  395  TRP395      0.0810
    194  CE3       23.4260  202.1890   14.9490 C.ar  395  TRP395      0.0012
    195  CZ2       25.6490  200.5350   14.4090 C.ar  395  TRP395      0.0191
    196  CZ3       23.4140  200.8440   15.2540 C.ar  395  TRP395      0.0001
    197  CH2       24.5160  200.0150   14.9880 C.ar  395  TRP395      0.0015
    198  N         21.8910  201.2410   10.0500 N.3   397  SER397     -0.1217
    199  CA        22.3200  199.8600   10.0620 C.3   397  SER397      0.1889
    200  C         21.2940  198.8870    9.4790 C.2   397  SER397      0.2288
    201  O         20.1310  199.2380    9.3120 O.2   397  SER397     -0.2866
    202  CB        22.6180  199.4160   11.5060 C.3   397  SER397      0.2089
    203  OG        21.4080  199.3100   12.2460 O.3   397  SER397     -0.2183
    204  N         20.9630  194.5820   10.3830 N.3   399  THR399     -0.1203
    205  CA        21.2880  193.5670   11.3670 C.3   399  THR399      0.1994
    206  C         20.6160  192.2600   10.9710 C.2   399  THR399      0.2618
    207  O         19.4320  192.3290   10.6170 O.2   399  THR399     -0.2717
    208  CB        20.8100  193.9830   12.7740 C.3   399  THR399      0.1784
    209  OG1       21.1340  195.3640   12.9740 O.3   399  THR399     -0.2211
    210  CG2       21.5130  193.1430   13.8220 C.3   399  THR399      0.0376
    211  N         21.3590  191.1660   11.0110 N.am  400  TRP400     -0.1961
    212  CA        20.8210  189.8740   10.5830 C.3   400  TRP400      0.1771
    213  C         21.5450  188.6890   11.2060 C.2   400  TRP400      0.2619
    214  O         22.5100  188.8180   11.9400 O.2   400  TRP400     -0.2715
    215  CB        20.8360  189.7290    9.0690 C.3   400  TRP400      0.0590
    216  CG        22.1030  189.6470    8.3090 C.ar  400  TRP400      0.0006
    217  CD1       22.6580  188.5050    7.7810 C.ar  400  TRP400      0.0946
    218  CD2       22.9980  190.7160    7.9610 C.ar  400  TRP400      0.0152
    219  NE1       23.8310  188.8040    7.1330 N.ar  400  TRP400     -0.2442
    220  CE2       24.0670  190.1470    7.2260 C.ar  400  TRP400      0.0810
    221  CE3       23.0230  192.0920    8.1830 C.ar  400  TRP400      0.0012
    222  CZ2       25.1250  190.9110    6.7300 C.ar  400  TRP400      0.0191
    223  CZ3       24.0710  192.8440    7.6890 C.ar  400  TRP400      0.0001
    224  CH2       25.1110  192.2540    6.9680 C.ar  400  TRP400      0.0015
    225  N         21.0360  187.5010   10.8800 N.am  401  MET401     -0.1977
    226  CA        21.6410  186.2970   11.4290 C.3   401  MET401      0.1605
    227  C         22.3230  185.4500   10.3700 C.2   401  MET401      0.2287
    228  O         23.3790  184.8540   10.5770 O.2   401  MET401     -0.2864
    229  CB        20.5860  185.4190   12.1250 C.3   401  MET401      0.0413
    230  CG        21.2550  184.3140   12.9270 C.3   401  MET401      0.0598
    231  SD        20.1540  183.4590   14.0690 S.3   401  MET401     -0.1393
    232  CE        19.3860  184.8190   14.9390 C.3   401  MET401      0.0692
    233  N         21.1600  192.1210    2.7420 N.3   409  ASN409     -0.1240
    234  CA        21.3320  193.1330    3.7920 C.3   409  ASN409      0.1653
    235  C         22.2660  194.2430    3.3450 C.2   409  ASN409      0.2266
    236  O         21.9050  195.4240    3.4120 O.2   409  ASN409     -0.2867
    237  CB        21.8250  192.4670    5.0810 C.3   409  ASN409      0.1155
    238  CG        20.7070  191.8020    5.8600 C.2   409  ASN409      0.2627
    239  OD1       19.9600  192.5020    6.5550 O.2   409  ASN409     -0.2716
    240  ND2       20.6180  190.4770    5.7640 N.am  409  ASN409     -0.0877
    241  N         31.6870  209.8610   11.7780 N.3   438  PHE438     -0.1241
    242  CA        32.3460  209.6220   13.0620 C.3   438  PHE438      0.1605
    243  C         33.3380  208.4820   13.0190 C.2   438  PHE438      0.2264
    244  O         32.9510  207.3980   12.5810 O.2   438  PHE438     -0.2867
    245  CB        31.2330  209.2950   14.0650 C.3   438  PHE438      0.0534
    246  CG        31.6080  209.0100   15.4980 C.ar  438  PHE438     -0.0203
    247  CD1       32.5720  209.7570   16.1520 C.ar  438  PHE438     -0.0042
    248  CD2       30.9890  207.9820   16.1830 C.ar  438  PHE438     -0.0042
    249  CE1       32.9010  209.4840   17.4670 C.ar  438  PHE438     -0.0003
    250  CE2       31.3010  207.7020   17.5010 C.ar  438  PHE438     -0.0003
    251  CZ        32.2560  208.4600   18.1460 C.ar  438  PHE438     -0.0000
    252  N         32.4700  204.8740   13.7870 N.3   441  TYR441     -0.1241
    253  CA        31.6070  204.3600   12.7640 C.3   441  TYR441      0.1605
    254  C         32.4050  204.1270   11.4770 C.2   441  TYR441      0.2264
    255  O         32.1670  204.8270   10.4910 O.2   441  TYR441     -0.2867
    256  CB        30.4750  205.3290   12.4350 C.3   441  TYR441      0.0534
    257  CG        29.5150  205.7050   13.5400 C.ar  441  TYR441     -0.0201
    258  CD1       28.6060  206.7290   13.3010 C.ar  441  TYR441     -0.0009
    259  CD2       29.4960  205.0800   14.7760 C.ar  441  TYR441     -0.0009
    260  CE1       27.6970  207.1300   14.2610 C.ar  441  TYR441      0.0417
    261  CE2       28.5900  205.4680   15.7520 C.ar  441  TYR441      0.0417
    262  CZ        27.7010  206.4890   15.4840 C.ar  441  TYR441      0.1957
    263  OH        26.7870  206.8960   16.4310 O.3   441  TYR441     -0.2866
@<TRIPOS>BOND
     1   134   133    2
     2   133   132    1
     3   133   135   am
     4   131   132    1
     5   131   128    1
     6   127   128    1
     7   233   234    1
     8   128   129    1
     9   235   236    2
    10   235   234    1
    11   234   237    1
    12   141   140    1
    13   129   136   am
    14   129   130    2
    15   136   137    1
    16   237   238    1
    17   140   142    1
    18   140   137    1
    19   240   238   am
    20   238   239    2
    21   137   138    1
    22   222   224   ar
    23   222   220   ar
    24   139   138    2
    25   224   223   ar
    26   138   143   am
    27   219   220   ar
    28   219   217   ar
    29   220   218   ar
    30   223   221   ar
    31   217   216   ar
    32   218   221   ar
    33   218   216   ar
    34   143   144    1
    35   216   215    1
    36   215   212    1
    37   201   200    2
    38   144   145    1
    39   144   147    1
    40   145   146    2
    41   200   199    1
    42   123   122    2
    43   157   158    1
    44   198   199    1
    45   199   202    1
    46   122   121    1
    47   227   228    2
    48   227   226    1
    49   204   205    1
    50   255   254    2
    51   160   159    2
    52   153   155   ar
    53   153   150   ar
    54   212   211    1
    55   212   213    1
    56   207   206    2
    57   147   148    1
    58   159   158    1
    59   158   161    1
    60   155   156   ar
    61   225   213   am
    62   225   226    1
    63   206   211   am
    64   206   205    1
    65   121   120    1
    66   121   124    1
    67   213   214    2
    68   205   208    1
    69   226   229    1
    70   254   253    1
    71   202   203    1
    72   150   148   ar
    73   150   152   ar
    74   148   149   ar
    75    25    24    2
    76   241   242    1
    77   186   187    2
    78   186   185    1
    79   156   154   ar
    80   229   230    1
    81   161   162    1
    82    24    23    1
    83   124   125    1
    84   124   126    1
    85   256   253    1
    86   256   257    1
    87   244   243    2
    88   185   184    1
    89   185   188    1
    90   253   252    1
    91   208   209    1
    92   208   210    1
    93   152   154   ar
    94   152   151   ar
    95   230   231    1
    96   149   151   ar
    97   243   242    1
    98   162   163    1
    99   242   245    1
   100   166   167    1
   101    26    23    1
   102    26    27    1
   103   258   257   ar
   104   258   260   ar
   105   190   192   ar
   106   190   189   ar
   107   192   193   ar
   108   257   259   ar
   109    23    22    1
   110   115   117   ar
   111   115   114   ar
   112   165   163   ar
   113   117   119   ar
   114   169   168    2
   115   189   188    1
   116   189   191   ar
   117   245   246    1
   118   231   232    1
   119   193   191   ar
   120   193   195   ar
   121   163   164   ar
   122   260   262   ar
   123   191   194   ar
   124    27    28   ar
   125    27    29   ar
   126   195   197   ar
   127   168   167    1
   128   167   170    1
   129    28    30   ar
   130   113   114    1
   131   113   110    1
   132   259   261   ar
   133   114   116   ar
   134   194   196   ar
   135   197   196   ar
   136    29    31   ar
   137   110   111    1
   138   110   109    1
   139   119   118   ar
   140   111   112    2
   141    60    61    2
   142    60    59    1
   143   262   261   ar
   144   262   263    1
   145   246   247   ar
   146   246   248   ar
   147   170   171    1
   148    30    32   ar
   149    31    32   ar
   150   116   118   ar
   151   247   249   ar
   152   248   250   ar
   153    59    58    1
   154    59    62    1
   155   172   173    1
   156   180   178   ar
   157   180   182   ar
   158     3     4    2
   159     3     2    1
   160   178   177   ar
   161    62    63    1
   162    15    14    2
   163   249   251   ar
   164   250   251   ar
   165   175   174    2
   166    14    13    1
   167   183   182    1
   168   182   181   ar
   169     7     9   ar
   170     7     6   ar
   171     1     2    1
   172    65    63   ar
   173    65    67   ar
   174     9    11   ar
   175   173   174    1
   176   173   176    1
   177   108   107    2
   178     2     5    1
   179   177   176    1
   180   177   179   ar
   181    63    64   ar
   182   101   100    2
   183   103   102    1
   184     5     6    1
   185     6     8   ar
   186   107   106    1
   187    11    10   ar
   188    67    68   ar
   189    57    56    1
   190    13    12    1
   191    13    16    1
   192   181   179   ar
   193    55    56   ar
   194    55    53   ar
   195   100    99    1
   196   100   105   am
   197     8    10   ar
   198   104   102    1
   199    64    66   ar
   200   102    99    1
   201    56    54   ar
   202    99    98    1
   203   106   105    1
   204    16    17    1
   205    53    51   ar
   206    68    66   ar
   207    68    69    1
   208    54    52   ar
   209    18    17   ar
   210    18    20   ar
   211    93    92    2
   212    17    19   ar
   213    51    52   ar
   214    51    50    1
   215    98    92   am
   216    92    91    1
   217    20    21   ar
   218    50    47    1
   219    19    21   ar
   220    97    95   ar
   221    46    47    1
   222    82    81    2
   223    45    44    1
   224    47    48    1
   225    81    90   am
   226    81    80    1
   227    49    48    2
   228    91    90    1
   229    91    94    1
   230    83    80    1
   231    83    84    1
   232    86    84   ar
   233    86    88   ar
   234    95    94    1
   235    95    96   ar
   236    80    79    1
   237    44    41    1
   238    84    85   ar
   239    88    89   ar
   240    73    72    2
   241    39    37    1
   242    79    72   am
   243    37    38    1
   244    37    34    1
   245    72    71    1
   246    40    41    1
   247    40    35   am
   248    33    34    1
   249    41    42    1
   250    85    87   ar
   251    89    87   ar
   252    34    35    1
   253    35    36    2
   254    43    42    2
   255    71    74    1
   256    71    70    1
   257    74    75    1
   258    75    76    1
   259    76    77    1
   260    77    78    1
