@<TRIPOS>MOLECULE
tmp/2ipoC01.pdb
 160 155 0 0 0
SMALL
GASTEIGER

@<TRIPOS>ATOM
      1  N         62.0440   45.7120   58.7510 N.3    51  ALA51      -0.1231
      2  CA        63.3290   45.2240   59.2550 C.3    51  ALA51       0.1694
      3  C         63.8810   46.0080   60.4320 C.2    51  ALA51       0.2593
      4  O         63.6780   47.2170   60.5450 O.2    51  ALA51      -0.2718
      5  CB        64.3500   45.2040   58.1350 C.3    51  ALA51       0.0304
      6  N         64.5930   45.3090   61.3090 N.am   52  SER52      -0.1938
      7  CA        65.1780   45.9420   62.4800 C.3    52  SER52       0.2055
      8  C         66.1330   45.0400   63.2410 C.2    52  SER52       0.2644
      9  O         65.9280   43.8230   63.3140 O.2    52  SER52      -0.2714
     10  CB        64.0770   46.3870   63.4380 C.3    52  SER52       0.2130
     11  OG        64.6350   46.8850   64.6410 O.3    52  SER52      -0.2179
     12  N         67.1800   45.6390   63.8020 N.am   53  THR53      -0.1936
     13  CA        68.1270   44.8930   64.6120 C.3    53  THR53       0.2028
     14  C         68.2520   45.5410   65.9980 C.2    53  THR53       0.2642
     15  O         67.9440   44.9200   67.0130 O.2    53  THR53      -0.2714
     16  CB        69.5190   44.8350   63.9700 C.3    53  THR53       0.1808
     17  OG1       69.4160   44.2300   62.6820 O.3    53  THR53      -0.2208
     18  CG2       70.4730   43.9950   64.8340 C.3    53  THR53       0.0379
     19  N         68.6880   46.7950   66.0310 N.am   54  ARG54      -0.1963
     20  CA        68.8680   47.5110   67.2850 C.3    54  ARG54       0.1729
     21  C         67.5720   47.8170   68.0220 C.2    54  ARG54       0.2616
     22  O         67.3980   47.4530   69.1880 O.2    54  ARG54      -0.2715
     23  CB        69.6230   48.8250   67.0370 C.3    54  ARG54       0.0348
     24  CG        71.1410   48.7240   67.0500 C.3    54  ARG54       0.0492
     25  CD        71.7110   49.7310   66.0820 C.3    54  ARG54       0.2205
     26  NE        71.3440   49.3400   64.7250 N.pl3  54  ARG54      -0.0865
     27  CZ        72.0720   48.5310   63.9690 C.cat  54  ARG54       0.5346
     28  NH1       73.2090   48.0480   64.4310 N.pl3  54  ARG54       0.1354
     29  NH2       71.6360   48.1560   62.7810 N.pl3  54  ARG54       0.1354
     30  N         66.6640   48.4960   67.3380 N.am   55  THR55      -0.1951
     31  CA        65.4080   48.8810   67.9560 C.3    55  THR55       0.1897
     32  C         64.6670   47.7000   68.5610 C.2    55  THR55       0.2313
     33  O         64.3900   47.6880   69.7610 O.2    55  THR55      -0.2863
     34  CB        64.5040   49.6030   66.9420 C.3    55  THR55       0.1794
     35  OG1       65.2340   50.6840   66.3570 O.3    55  THR55      -0.2208
     36  CG2       63.2750   50.1690   67.6220 C.3    55  THR55       0.0378
     37  N         56.7890   49.0270   64.7160 N.3   105  ARG105     -0.1245
     38  CA        57.5200   49.6950   63.6320 C.3   105  ARG105      0.1563
     39  C         56.7680   49.3230   62.3530 C.2   105  ARG105      0.2260
     40  O         56.4270   48.1610   62.1390 O.2   105  ARG105     -0.2867
     41  CB        58.9730   49.2240   63.5410 C.3   105  ARG105      0.0307
     42  CG        59.7080   49.8180   62.3400 C.3   105  ARG105      0.0489
     43  CD        61.1840   49.4610   62.3210 C.3   105  ARG105      0.2205
     44  NE        61.9710   50.3560   63.1660 N.pl3 105  ARG105     -0.0865
     45  CZ        63.3000   50.3750   63.2080 C.cat 105  ARG105      0.5346
     46  NH1       64.0070   49.5390   62.4500 N.pl3 105  ARG105      0.1354
     47  NH2       63.9200   51.2380   64.0010 N.pl3 105  ARG105      0.1354
     48  N         60.8870   58.6240   64.9290 N.3   134  HIS134     -0.1241
     49  CA        61.6450   57.5820   65.6070 C.3   134  HIS134      0.1621
     50  C         61.9820   58.0760   67.0150 C.2   134  HIS134      0.2264
     51  O         63.1420   58.2770   67.3630 O.2   134  HIS134     -0.2867
     52  CB        62.9260   57.2750   64.8330 C.3   134  HIS134      0.0745
     53  CG        63.5410   55.9570   65.1810 C.ar  134  HIS134      0.0817
     54  ND1       63.2470   55.2820   66.3450 N.ar  134  HIS134     -0.2268
     55  CD2       64.4380   55.1900   64.5180 C.ar  134  HIS134      0.1154
     56  CE1       63.9360   54.1570   66.3850 C.ar  134  HIS134      0.1986
     57  NE2       64.6660   54.0770   65.2880 N.ar  134  HIS134     -0.2212
     58  N         64.4540   56.5830   69.3600 N.3   137  GLN137     -0.1245
     59  CA        65.7860   56.7970   68.8060 C.3   137  GLN137      0.1566
     60  C         66.2770   58.0960   69.4340 C.2   137  GLN137      0.2260
     61  O         67.3450   58.1400   70.0540 O.2   137  GLN137     -0.2867
     62  CB        65.7410   56.9600   67.2850 C.3   137  GLN137      0.0367
     63  CG        67.1100   57.1940   66.6750 C.3   137  GLN137      0.0905
     64  CD        68.0300   55.9960   66.8610 C.2   137  GLN137      0.2608
     65  OE1       67.7350   54.9130   66.3680 O.2   137  GLN137     -0.2717
     66  NE2       69.1420   56.1850   67.5720 N.am  137  GLN137     -0.0878
     67  N         65.0910   60.4460   56.7560 N.3   166  GLY166     -0.1210
     68  CA        65.5700   60.0520   58.0650 C.3   166  GLY166      0.1956
     69  C         64.6340   60.4040   59.2050 C.2   166  GLY166      0.2612
     70  O         64.6250   61.5320   59.6790 O.2   166  GLY166     -0.2717
     71  N         63.8410   59.4360   59.6550 N.am  167  ARG167     -0.1965
     72  CA        62.9310   59.6770   60.7650 C.3   167  ARG167      0.1729
     73  C         63.7550   59.9970   62.0110 C.2   167  ARG167      0.2616
     74  O         63.2930   60.6920   62.9220 O.2   167  ARG167     -0.2715
     75  CB        62.0430   58.4510   60.9920 C.3   167  ARG167      0.0348
     76  CG        62.7990   57.1330   61.0340 C.3   167  ARG167      0.0492
     77  CD        61.8440   55.9500   61.0090 C.3   167  ARG167      0.2205
     78  NE        62.5380   54.6690   61.0610 N.pl3 167  ARG167     -0.0865
     79  CZ        61.9650   53.4940   60.8080 C.cat 167  ARG167      0.5346
     80  NH1       60.6800   53.4410   60.4760 N.pl3 167  ARG167      0.1354
     81  NH2       62.6790   52.3720   60.8860 N.pl3 167  ARG167      0.1354
     82  N         64.9910   59.5030   62.0320 N.am  168  THR168     -0.1951
     83  CA        65.8960   59.7380   63.1510 C.3   168  THR168      0.1897
     84  C         66.2170   61.2270   63.3580 C.2   168  THR168      0.2313
     85  O         66.1160   61.7350   64.4810 O.2   168  THR168     -0.2863
     86  CB        67.1920   58.9720   62.9510 C.3   168  THR168      0.1794
     87  OG1       67.7060   59.2610   61.6500 O.3   168  THR168     -0.2208
     88  CG2       66.9490   57.4790   63.0590 C.3   168  THR168      0.0378
     89  N         72.3190   57.0700   57.3040 N.3   229  ARG229     -0.1245
     90  CA        72.3330   56.1930   56.1460 C.3   229  ARG229      0.1563
     91  C         71.2850   56.6120   55.1310 C.2   229  ARG229      0.2260
     92  O         70.1890   57.0340   55.5020 O.2   229  ARG229     -0.2867
     93  CB        72.0560   54.7620   56.6080 C.3   229  ARG229      0.0307
     94  CG        71.8830   53.7420   55.5000 C.3   229  ARG229      0.0489
     95  CD        71.5350   52.3880   56.0810 C.3   229  ARG229      0.2205
     96  NE        70.2070   52.3830   56.6800 N.pl3 229  ARG229     -0.0865
     97  CZ        69.0820   52.2610   55.9880 C.cat 229  ARG229      0.5346
     98  NH1       69.1370   52.1240   54.6740 N.pl3 229  ARG229      0.1354
     99  NH2       67.9060   52.2990   56.6050 N.pl3 229  ARG229      0.1354
    100  N         68.3040   56.3700   53.1800 N.3   231  GLN231     -0.1245
    101  CA        67.1250   55.5130   53.3120 C.3   231  GLN231      0.1566
    102  C         66.7080   54.8740   51.9960 C.2   231  GLN231      0.2260
    103  O         65.6330   55.1350   51.4680 O.2   231  GLN231     -0.2867
    104  CB        65.9610   56.3020   53.9120 C.3   231  GLN231      0.0367
    105  CG        66.2890   56.9150   55.2680 C.3   231  GLN231      0.0905
    106  CD        66.6530   55.8790   56.3220 C.2   231  GLN231      0.2608
    107  OE1       65.7760   55.2590   56.9190 O.2   231  GLN231     -0.2717
    108  NE2       67.9530   55.6840   56.5490 N.am  231  GLN231     -0.0878
    109  N         65.4310   52.1340   51.1160 N.3   233  GLU233     -0.1231
    110  CA        64.0950   51.5330   51.0870 C.3   233  GLU233      0.1699
    111  C         62.9810   52.5480   50.8870 C.2   233  GLU233      0.2592
    112  O         61.8390   52.1740   50.6100 O.2   233  GLU233     -0.2718
    113  CB        63.7890   50.7950   52.4010 C.3   233  GLU233      0.0402
    114  CG        64.9930   50.2570   53.1470 C.3   233  GLU233      0.1161
    115  CD        65.4620   51.1810   54.2540 C.2   233  GLU233      0.3649
    116  OE1       64.7610   51.3070   55.2820 O.co2 233  GLU233     -0.2457
    117  OE2       66.5380   51.7850   54.0920 O.co2 233  GLU233     -0.2457
    118  N         63.2920   53.8280   51.0310 N.am  234  ARG234     -0.1980
    119  CA        62.2550   54.8340   50.9060 C.3   234  ARG234      0.1597
    120  C         62.4160   55.7230   49.6900 C.2   234  ARG234      0.2287
    121  O         61.4660   56.3810   49.2630 O.2   234  ARG234     -0.2864
    122  CB        62.2070   55.6630   52.1970 C.3   234  ARG234      0.0334
    123  CG        62.0820   54.7860   53.4510 C.3   234  ARG234      0.0492
    124  CD        62.2150   55.5780   54.7410 C.3   234  ARG234      0.2205
    125  NE        62.5110   54.7270   55.8970 N.pl3 234  ARG234     -0.0865
    126  CZ        61.7190   53.7480   56.3280 C.cat 234  ARG234      0.5346
    127  NH1       60.5760   53.4960   55.7000 N.pl3 234  ARG234      0.1354
    128  NH2       62.0730   53.0160   57.3790 N.pl3 234  ARG234      0.1354
    129  N         75.6360   57.7360   65.1680 N.3   265  HIS265     -0.1227
    130  CA        74.9800   57.1660   64.0050 C.3   265  HIS265      0.1737
    131  C         73.8970   56.1950   64.4640 C.2   265  HIS265      0.2438
    132  O         74.1760   55.2120   65.1510 O.2   265  HIS265     -0.2733
    133  CB        75.9840   56.4390   63.1090 C.3   265  HIS265      0.0758
    134  CG        75.4400   56.1080   61.7560 C.ar  265  HIS265      0.0818
    135  ND1       74.1890   55.5590   61.5720 N.ar  265  HIS265     -0.2268
    136  CD2       75.9720   56.2580   60.5190 C.ar  265  HIS265      0.1154
    137  CE1       73.9740   55.3860   60.2790 C.ar  265  HIS265      0.1986
    138  NE2       75.0400   55.8030   59.6170 N.ar  265  HIS265     -0.2212
    139  N         72.6430   56.4590   64.0800 N.am  266  PRO266     -0.2718
    140  CA        71.5280   55.5940   64.4690 C.3   266  PRO266      0.1535
    141  C         71.8290   54.1460   64.1090 C.2   266  PRO266      0.2598
    142  O         71.4170   53.2220   64.8110 O.2   266  PRO266     -0.2715
    143  CB        70.3630   56.1330   63.6460 C.3   266  PRO266      0.0310
    144  CG        70.7660   57.5350   63.3250 C.3   266  PRO266      0.0237
    145  CD        72.2220   57.4160   63.0480 C.3   266  PRO266      0.0939
    146  N         72.5500   53.9750   63.0030 N.am  267  LEU267     -0.1964
    147  CA        72.9180   52.6600   62.4750 C.3   267  LEU267      0.1713
    148  C         71.7090   52.0080   61.7910 C.2   267  LEU267      0.2458
    149  O         70.5650   52.3720   62.0490 O.2   267  LEU267     -0.2730
    150  CB        73.4670   51.7510   63.5890 C.3   267  LEU267      0.0310
    151  CG        74.7680   52.2350   64.2510 C.3   267  LEU267      0.0022
    152  CD1       75.1970   51.2440   65.3020 C.3   267  LEU267      0.0001
    153  CD2       75.8800   52.4000   63.2120 C.3   267  LEU267      0.0001
    154  N         71.9540   51.0640   60.8780 N.am  268  PRO268     -0.2727
    155  CA        73.2770   50.6010   60.4760 C.3   268  PRO268      0.1402
    156  C         73.8990   51.5840   59.5080 C.2   268  PRO268      0.2269
    157  O         73.2060   52.4110   58.9130 O.2   268  PRO268     -0.2865
    158  CB        72.9750   49.2740   59.8050 C.3   268  PRO268      0.0296
    159  CG        71.7100   49.6030   59.0770 C.3   268  PRO268      0.0237
    160  CD        70.9090   50.3480   60.1280 C.3   268  PRO268      0.0939
@<TRIPOS>BOND
     1   121   120    2
     2   120   119    1
     3   112   111    2
     4   111   118   am
     5   111   110    1
     6   119   118    1
     7   119   122    1
     8   110   109    1
     9   110   113    1
    10   103   102    2
    11   102   101    1
    12   122   123    1
    13   113   114    1
    14   114   115    1
    15   100   101    1
    16   101   104    1
    17   123   124    1
    18   104   105    1
    19   117   115   ar
    20   115   116   ar
    21    98    97    1
    22   124   125    1
    23    91    92    2
    24    91    90    1
    25   105   106    1
    26    94    95    1
    27    94    93    1
    28   127   126    1
    29   125   126    2
    30    97    99    1
    31    97    96    2
    32    95    96    1
    33    90    93    1
    34    90    89    1
    35   106   108   am
    36   106   107    2
    37   126   128    1
    38    67    68    1
    39    68    69    1
    40     5     2    1
    41     1     2    1
    42   157   156    2
    43   159   158    1
    44   159   160    1
    45    69    71   am
    46    69    70    2
    47     2     3    1
    48   156   155    1
    49   138   137   ar
    50   138   136   ar
    51    71    72    1
    52   158   155    1
    53   160   154    1
    54   137   135   ar
    55     3     4    2
    56     3     6   am
    57   155   154    1
    58    80    79    1
    59   136   134   ar
    60    72    75    1
    61    72    73    1
    62    79    81    1
    63    79    78    2
    64   154   148   am
    65    75    76    1
    66    77    76    1
    67    77    78    1
    68     6     7    1
    69   135   134   ar
    70    87    86    1
    71   134   133    1
    72   148   149    2
    73   148   147    1
    74    73    82   am
    75    73    74    2
    76    82    83    1
    77    40    39    2
    78    43    42    1
    79    43    44    1
    80    42    41    1
    81    39    38    1
    82    46    45    1
    83   147   146    1
    84   147   150    1
    85     7     8    1
    86     7    10    1
    87    17    16    1
    88    29    27    1
    89    86    88    1
    90    86    83    1
    91   146   141   am
    92   145   144    1
    93   145   139    1
    94   133   130    1
    95    83    84    1
    96    44    45    2
    97    45    47    1
    98   153   151    1
    99     8     9    2
   100     8    12   am
   101   144   143    1
   102    84    85    2
   103    10    11    1
   104    41    38    1
   105   150   151    1
   106    38    37    1
   107   143   140    1
   108    12    13    1
   109    27    28    1
   110    27    26    2
   111    16    13    1
   112    16    18    1
   113   130   131    1
   114   130   129    1
   115   139   131   am
   116   139   140    1
   117   141   140    1
   118   141   142    2
   119   151   152    1
   120   131   132    2
   121    55    53   ar
   122    55    57   ar
   123    13    14    1
   124    26    25    1
   125    52    53    1
   126    52    49    1
   127    48    49    1
   128    53    54   ar
   129    57    56   ar
   130    49    50    1
   131    14    19   am
   132    14    15    2
   133    19    20    1
   134    25    24    1
   135    54    56   ar
   136    35    34    1
   137    65    64    2
   138    63    64    1
   139    63    62    1
   140    64    66   am
   141    34    36    1
   142    34    31    1
   143    50    51    2
   144    23    24    1
   145    23    20    1
   146    62    59    1
   147    20    21    1
   148    30    31    1
   149    30    21   am
   150    31    32    1
   151    21    22    2
   152    32    33    2
   153    59    58    1
   154    59    60    1
   155    60    61    2
