@<TRIPOS>MOLECULE
tmp/2ipoC02.pdb
 113 108 0 0 0
SMALL
GASTEIGER

@<TRIPOS>ATOM
      1  N         68.6880   46.7950   66.0310 N.3    54  ARG54      -0.1231
      2  CA        68.8680   47.5110   67.2850 C.3    54  ARG54       0.1694
      3  C         67.5720   47.8170   68.0220 C.2    54  ARG54       0.2592
      4  O         67.3980   47.4530   69.1880 O.2    54  ARG54      -0.2718
      5  CB        69.6230   48.8250   67.0370 C.3    54  ARG54       0.0321
      6  CG        71.1410   48.7240   67.0500 C.3    54  ARG54       0.0489
      7  CD        71.7110   49.7310   66.0820 C.3    54  ARG54       0.2205
      8  NE        71.3440   49.3400   64.7250 N.pl3  54  ARG54      -0.0865
      9  CZ        72.0720   48.5310   63.9690 C.cat  54  ARG54       0.5346
     10  NH1       73.2090   48.0480   64.4310 N.pl3  54  ARG54       0.1354
     11  NH2       71.6360   48.1560   62.7810 N.pl3  54  ARG54       0.1354
     12  N         66.6640   48.4960   67.3380 N.am   55  THR55      -0.1953
     13  CA        65.4080   48.8810   67.9560 C.3    55  THR55       0.1897
     14  C         64.6670   47.7000   68.5610 C.2    55  THR55       0.2313
     15  O         64.3900   47.6880   69.7610 O.2    55  THR55      -0.2863
     16  CB        64.5040   49.6030   66.9420 C.3    55  THR55       0.1794
     17  OG1       65.2340   50.6840   66.3570 O.3    55  THR55      -0.2208
     18  CG2       63.2750   50.1690   67.6220 C.3    55  THR55       0.0378
     19  N         66.8560   45.6410   71.3520 N.3    58  SER58      -0.1217
     20  CA        67.1080   46.4370   72.5500 C.3    58  SER58       0.1889
     21  C         65.7830   46.5650   73.2760 C.2    58  SER58       0.2288
     22  O         65.7160   46.4100   74.4910 O.2    58  SER58      -0.2866
     23  CB        67.6520   47.8290   72.1970 C.3    58  SER58       0.2089
     24  OG        66.6790   48.6180   71.5320 O.3    58  SER58      -0.2183
     25  N         60.8870   58.6240   64.9290 N.3   134  HIS134     -0.1241
     26  CA        61.6450   57.5820   65.6070 C.3   134  HIS134      0.1621
     27  C         61.9820   58.0760   67.0150 C.2   134  HIS134      0.2264
     28  O         63.1420   58.2770   67.3630 O.2   134  HIS134     -0.2867
     29  CB        62.9260   57.2750   64.8330 C.3   134  HIS134      0.0745
     30  CG        63.5410   55.9570   65.1810 C.ar  134  HIS134      0.0817
     31  ND1       63.2470   55.2820   66.3450 N.ar  134  HIS134     -0.2268
     32  CD2       64.4380   55.1900   64.5180 C.ar  134  HIS134      0.1154
     33  CE1       63.9360   54.1570   66.3850 C.ar  134  HIS134      0.1986
     34  NE2       64.6660   54.0770   65.2880 N.ar  134  HIS134     -0.2212
     35  N         64.4540   56.5830   69.3600 N.3   137  GLN137     -0.1245
     36  CA        65.7860   56.7970   68.8060 C.3   137  GLN137      0.1566
     37  C         66.2770   58.0960   69.4340 C.2   137  GLN137      0.2260
     38  O         67.3450   58.1400   70.0540 O.2   137  GLN137     -0.2867
     39  CB        65.7410   56.9600   67.2850 C.3   137  GLN137      0.0367
     40  CG        67.1100   57.1940   66.6750 C.3   137  GLN137      0.0905
     41  CD        68.0300   55.9960   66.8610 C.2   137  GLN137      0.2608
     42  OE1       67.7350   54.9130   66.3680 O.2   137  GLN137     -0.2717
     43  NE2       69.1420   56.1850   67.5720 N.am  137  GLN137     -0.0878
     44  N         67.2500   57.9850   73.1740 N.3   140  LEU140     -0.1245
     45  CA        68.5650   57.4260   73.4480 C.3   140  LEU140      0.1561
     46  C         69.6480   58.3540   72.8870 C.2   140  LEU140      0.2260
     47  O         70.7050   58.5230   73.5050 O.2   140  LEU140     -0.2867
     48  CB        68.7000   56.0110   72.8580 C.3   140  LEU140      0.0270
     49  CG        68.9700   55.8070   71.3630 C.3   140  LEU140      0.0019
     50  CD1       70.4760   55.8380   71.0870 C.3   140  LEU140      0.0001
     51  CD2       68.3890   54.4710   70.9350 C.3   140  LEU140      0.0001
     52  N         75.6360   57.7360   65.1680 N.3   265  HIS265     -0.1227
     53  CA        74.9800   57.1660   64.0050 C.3   265  HIS265      0.1737
     54  C         73.8970   56.1950   64.4640 C.2   265  HIS265      0.2438
     55  O         74.1760   55.2120   65.1510 O.2   265  HIS265     -0.2733
     56  CB        75.9840   56.4390   63.1090 C.3   265  HIS265      0.0758
     57  CG        75.4400   56.1080   61.7560 C.ar  265  HIS265      0.0818
     58  ND1       74.1890   55.5590   61.5720 N.ar  265  HIS265     -0.2268
     59  CD2       75.9720   56.2580   60.5190 C.ar  265  HIS265      0.1154
     60  CE1       73.9740   55.3860   60.2790 C.ar  265  HIS265      0.1986
     61  NE2       75.0400   55.8030   59.6170 N.ar  265  HIS265     -0.2212
     62  N         72.6430   56.4590   64.0800 N.am  266  PRO266     -0.2718
     63  CA        71.5280   55.5940   64.4690 C.3   266  PRO266      0.1535
     64  C         71.8290   54.1460   64.1090 C.2   266  PRO266      0.2598
     65  O         71.4170   53.2220   64.8110 O.2   266  PRO266     -0.2715
     66  CB        70.3630   56.1330   63.6460 C.3   266  PRO266      0.0310
     67  CG        70.7660   57.5350   63.3250 C.3   266  PRO266      0.0237
     68  CD        72.2220   57.4160   63.0480 C.3   266  PRO266      0.0939
     69  N         72.5500   53.9750   63.0030 N.am  267  LEU267     -0.1978
     70  CA        72.9180   52.6600   62.4750 C.3   267  LEU267      0.1596
     71  C         71.7090   52.0080   61.7910 C.2   267  LEU267      0.2287
     72  O         70.5650   52.3720   62.0490 O.2   267  LEU267     -0.2864
     73  CB        73.4670   51.7510   63.5890 C.3   267  LEU267      0.0297
     74  CG        74.7680   52.2350   64.2510 C.3   267  LEU267      0.0022
     75  CD1       75.1970   51.2440   65.3020 C.3   267  LEU267      0.0001
     76  CD2       75.8800   52.4000   63.2120 C.3   267  LEU267      0.0001
     77  N         79.0550   55.5480   68.1630 N.3   285  TYR285     -0.1241
     78  CA        77.7920   54.9510   67.7410 C.3   285  TYR285      0.1605
     79  C         77.4510   53.6500   68.4470 C.2   285  TYR285      0.2264
     80  O         76.2710   53.3540   68.6570 O.2   285  TYR285     -0.2867
     81  CB        77.7680   54.7310   66.2200 C.3   285  TYR285      0.0534
     82  CG        79.1350   54.6790   65.5750 C.ar  285  TYR285     -0.0201
     83  CD1       79.8610   55.8450   65.3380 C.ar  285  TYR285     -0.0009
     84  CD2       79.7100   53.4650   65.2160 C.ar  285  TYR285     -0.0009
     85  CE1       81.1170   55.8050   64.7610 C.ar  285  TYR285      0.0417
     86  CE2       80.9750   53.4120   64.6360 C.ar  285  TYR285      0.0417
     87  CZ        81.6710   54.5860   64.4100 C.ar  285  TYR285      0.1957
     88  OH        82.9200   54.5430   63.8290 O.3   285  TYR285     -0.2866
     89  N         76.4150   54.3870   71.9340 N.3   288  GLN288     -0.1231
     90  CA        75.1140   55.0020   71.7070 C.3   288  GLN288      0.1698
     91  C         74.0730   53.8940   71.6510 C.2   288  GLN288      0.2592
     92  O         73.1050   53.8960   72.4110 O.2   288  GLN288     -0.2718
     93  CB        75.1450   55.7300   70.3730 C.3   288  GLN288      0.0381
     94  CG        73.8890   56.4600   69.9800 C.3   288  GLN288      0.0905
     95  CD        73.9810   56.9730   68.5510 C.2   288  GLN288      0.2608
     96  OE1       75.0620   57.0330   67.9750 O.2   288  GLN288     -0.2717
     97  NE2       72.8480   57.3550   67.9790 N.am  288  GLN288     -0.0878
     98  N         74.2810   52.9380   70.7480 N.am  289  ALA289     -0.1980
     99  CA        73.3550   51.8250   70.5980 C.3   289  ALA289      0.1597
    100  C         73.0710   51.1850   71.9510 C.2   289  ALA289      0.2287
    101  O         71.9200   50.8580   72.2650 O.2   289  ALA289     -0.2864
    102  CB        73.9270   50.8020   69.6490 C.3   289  ALA289      0.0319
    103  N         65.1600   52.8690   76.6790 N.3   296  ARG296     -0.1245
    104  CA        63.9190   52.1400   76.5380 C.3   296  ARG296      0.1563
    105  C         63.4400   51.5410   77.8370 C.2   296  ARG296      0.2260
    106  O         62.2400   51.4000   78.0430 O.2   296  ARG296     -0.2867
    107  CB        64.0600   51.0940   75.4370 C.3   296  ARG296      0.0307
    108  CG        64.0120   51.7680   74.0800 C.3   296  ARG296      0.0489
    109  CD        64.5910   50.9680   72.9370 C.3   296  ARG296      0.2205
    110  NE        64.4360   51.7390   71.7050 N.pl3 296  ARG296     -0.0865
    111  CZ        65.4060   51.9660   70.8270 C.cat 296  ARG296      0.5346
    112  NH1       66.6230   51.4720   71.0220 N.pl3 296  ARG296      0.1354
    113  NH2       65.1620   52.7220   69.7710 N.pl3 296  ARG296      0.1354
@<TRIPOS>BOND
     1    61    60   ar
     2    61    59   ar
     3    60    58   ar
     4    59    57   ar
     5    58    57   ar
     6    57    56    1
     7    71    72    2
     8    71    70    1
     9    70    69    1
    10    70    73    1
    11    11     9    1
    12    69    64   am
    13    68    67    1
    14    68    62    1
    15    56    53    1
    16    76    74    1
    17    67    66    1
    18    73    74    1
    19    66    63    1
    20    88    87    1
    21     9    10    1
    22     9     8    2
    23    53    54    1
    24    53    52    1
    25    62    54   am
    26    62    63    1
    27    64    63    1
    28    64    65    2
    29    74    75    1
    30    87    86   ar
    31    87    85   ar
    32    54    55    2
    33    32    30   ar
    34    32    34   ar
    35    86    84   ar
    36     8     7    1
    37    85    83   ar
    38    29    30    1
    39    29    26    1
    40    25    26    1
    41    30    31   ar
    42    84    82   ar
    43    34    33   ar
    44    83    82   ar
    45    82    81    1
    46    26    27    1
    47     1     2    1
    48     7     6    1
    49    81    78    1
    50    31    33   ar
    51    17    16    1
    52    42    41    2
    53    40    41    1
    54    40    39    1
    55    41    43   am
    56    16    18    1
    57    16    13    1
    58    27    28    2
    59     5     6    1
    60     5     2    1
    61     2     3    1
    62    39    36    1
    63    12    13    1
    64    12     3   am
    65    78    77    1
    66    78    79    1
    67    13    14    1
    68    96    95    2
    69    97    95   am
    70     3     4    2
    71    79    80    2
    72    95    94    1
    73    14    15    2
    74    36    35    1
    75    36    37    1
    76    37    38    2
    77   102    99    1
    78   113   111    1
    79    94    93    1
    80    93    90    1
    81    99    98    1
    82    99   100    1
    83    98    91   am
    84   111   112    1
    85   111   110    2
    86    51    49    1
    87    50    49    1
    88    19    20    1
    89    49    48    1
    90    24    23    1
    91    91    90    1
    92    91    92    2
    93   110   109    1
    94    90    89    1
    95   100   101    2
    96    23    20    1
    97    20    21    1
    98    48    45    1
    99    46    45    1
   100    46    47    2
   101   109   108    1
   102    44    45    1
   103    21    22    2
   104   108   107    1
   105   107   104    1
   106   104   103    1
   107   104   105    1
   108   105   106    2
