@<TRIPOS>MOLECULE
tmp/2ippB00.pdb
 79 77 0 0 0
SMALL
GASTEIGER

@<TRIPOS>ATOM
      1  N        -22.2920   77.0820  -53.0940 N.3    22  CYS22      -0.1221
      2  CA       -21.1220   77.1730  -53.9840 C.3    22  CYS22       0.1808
      3  C        -19.9020   77.7780  -53.3120 C.2    22  CYS22       0.2601
      4  O        -18.7960   77.7170  -53.8980 O.2    22  CYS22      -0.2717
      5  CB       -21.4600   77.8660  -55.3000 C.3    22  CYS22       0.0970
      6  SG       -22.4140   76.8950  -56.4740 S.3    22  CYS22      -0.0800
      7  N        -20.0800   78.3520  -52.1240 N.am   23  ASN23      -0.1960
      8  CA       -18.9120   78.9600  -51.4170 C.3    23  ASN23       0.1819
      9  C        -18.3650   77.9430  -50.4280 C.2    23  ASN23       0.2621
     10  O        -17.7440   78.3030  -49.4130 O.2    23  ASN23      -0.2715
     11  CB       -19.2300   80.3590  -50.9420 C.3    23  ASN23       0.1195
     12  CG       -18.2730   81.1060  -50.0360 C.2    23  ASN23       0.2630
     13  OD1      -17.2260   81.5220  -50.5520 O.2    23  ASN23      -0.2716
     14  ND2      -18.5530   81.2600  -48.7200 N.am   23  ASN23      -0.0877
     15  N        -18.5110   76.6570  -50.7180 N.am   24  GLY24      -0.1954
     16  CA       -17.9970   75.5890  -49.8760 C.3    24  GLY24       0.1869
     17  C        -18.9130   75.2120  -48.7310 C.2    24  GLY24       0.2309
     18  O        -19.8520   75.9520  -48.3960 O.2    24  GLY24      -0.2863
     19  N        -15.9870   80.6440  -58.9230 N.3    73  GLU73      -0.1245
     20  CA       -17.2020   80.1580  -58.2300 C.3    73  GLU73       0.1567
     21  C        -18.3070   81.1240  -58.6840 C.2    73  GLU73       0.2260
     22  O        -18.0660   82.2900  -58.9970 O.2    73  GLU73      -0.2867
     23  CB       -17.2380   79.8880  -56.7820 C.3    73  GLU73       0.0388
     24  CG       -17.2390   80.8700  -55.6340 C.3    73  GLU73       0.1160
     25  CD       -16.1810   80.5550  -54.6020 C.2    73  GLU73       0.3649
     26  OE1      -15.1220   79.9890  -54.8720 O.co2  73  GLU73      -0.2457
     27  OE2      -16.5420   80.9500  -53.4700 O.co2  73  GLU73      -0.2457
     28  N         -5.2210   71.1820  -50.7520 N.3   127  VAL127     -0.1245
     29  CA        -4.7390   71.2640  -52.1280 C.3   127  VAL127      0.1561
     30  C         -3.6590   72.3360  -52.2070 C.2   127  VAL127      0.2260
     31  O         -3.8030   73.4860  -51.7840 O.2   127  VAL127     -0.2867
     32  CB        -5.8470   71.2800  -53.1790 C.3   127  VAL127      0.0252
     33  CG1       -7.2390   71.7820  -52.7550 C.3   127  VAL127      0.0019
     34  CG2       -5.4390   72.0100  -54.4730 C.3   127  VAL127      0.0019
     35  N         -3.9880   76.2490  -51.5950 N.3   147  MET147     -0.1230
     36  CA        -5.2040   76.7090  -52.2360 C.3   147  MET147      0.1702
     37  C         -6.4120   76.5140  -51.2790 C.2   147  MET147      0.2593
     38  O         -7.2230   77.4550  -51.1340 O.2   147  MET147     -0.2718
     39  CB        -5.5980   76.0400  -53.5190 C.3   147  MET147      0.0401
     40  CG        -4.5130   75.4330  -54.3270 C.3   147  MET147      0.0596
     41  SD        -3.8920   76.7300  -55.4190 S.3   147  MET147     -0.1393
     42  CE        -4.9430   76.4720  -56.8600 C.3   147  MET147      0.0692
     43  N         -6.5370   75.3420  -50.7000 N.am  148  GLY148     -0.1942
     44  CA        -7.6470   75.1040  -49.7580 C.3   148  GLY148      0.2014
     45  C         -7.9210   73.6370  -49.5030 C.2   148  GLY148      0.2639
     46  O         -7.0900   72.7860  -49.8460 O.2   148  GLY148     -0.2714
     47  N         -9.0590   73.3850  -48.8740 N.am  149  GLY149     -0.1939
     48  CA        -9.5120   72.0100  -48.5760 C.3   149  GLY149      0.2014
     49  C        -10.3590   71.6030  -49.7990 C.2   149  GLY149      0.2639
     50  O        -11.0140   72.4360  -50.4390 O.2   149  GLY149     -0.2714
     51  N        -10.3290   70.3170  -50.0900 N.am  150  HIS150     -0.1959
     52  CA       -11.0420   69.7760  -51.2520 C.3   150  HIS150      0.1787
     53  C        -11.5470   68.3770  -50.9290 C.2   150  HIS150      0.2620
     54  O        -10.7620   67.4440  -50.7650 O.2   150  HIS150     -0.2715
     55  CB       -10.1600   69.7730  -52.4820 C.3   150  HIS150      0.0785
     56  CG       -10.6420   69.1870  -53.7490 C.ar  150  HIS150      0.0821
     57  ND1      -11.5680   69.7400  -54.5980 N.ar  150  HIS150     -0.2267
     58  CD2      -10.2170   68.0490  -54.3630 C.ar  150  HIS150      0.1154
     59  CE1      -11.7270   68.9450  -55.6450 C.ar  150  HIS150      0.1986
     60  NE2      -10.9240   67.9160  -55.5360 N.ar  150  HIS150     -0.2212
     61  N        -12.8610   68.3100  -50.8830 N.am  151  ALA151     -0.1977
     62  CA       -13.5980   67.0460  -50.5830 C.3   151  ALA151      0.1597
     63  C        -13.6040   66.1910  -51.8400 C.2   151  ALA151      0.2287
     64  O        -13.7400   66.6720  -52.9840 O.2   151  ALA151     -0.2864
     65  CB       -14.9560   67.4780  -50.0660 C.3   151  ALA151      0.0319
     66  N        -13.5220   66.8860  -61.2900 N.3   172  TRP172     -0.1241
     67  CA       -13.0330   67.8570  -62.2730 C.3   172  TRP172      0.1605
     68  C        -13.1300   67.2750  -63.6770 C.2   172  TRP172      0.2264
     69  O        -12.3150   67.5760  -64.5590 O.2   172  TRP172     -0.2867
     70  CB       -11.6480   68.3990  -61.9490 C.3   172  TRP172      0.0550
     71  CG       -11.5400   69.2370  -60.7090 C.ar  172  TRP172      0.0003
     72  CD1      -12.5590   69.7680  -59.9290 C.ar  172  TRP172      0.0946
     73  CD2      -10.3220   69.6720  -60.1050 C.ar  172  TRP172      0.0152
     74  NE1      -12.0190   70.4390  -58.8730 N.ar  172  TRP172     -0.2442
     75  CE2      -10.6630   70.4110  -58.9570 C.ar  172  TRP172      0.0810
     76  CE3       -8.9790   69.4840  -60.4210 C.ar  172  TRP172      0.0012
     77  CZ2       -9.6900   70.9780  -58.1380 C.ar  172  TRP172      0.0191
     78  CZ3       -8.0050   70.0260  -59.6030 C.ar  172  TRP172      0.0001
     79  CH2       -8.3590   70.7670  -58.4830 C.ar  172  TRP172      0.0015
@<TRIPOS>BOND
     1    69    68    2
     2    68    67    1
     3    67    70    1
     4    67    66    1
     5    70    71    1
     6    71    73   ar
     7    71    72   ar
     8    76    73   ar
     9    76    78   ar
    10    73    75   ar
    11    72    74   ar
    12    78    79   ar
    13    22    21    2
    14    75    74   ar
    15    75    77   ar
    16    19    20    1
    17    21    20    1
    18    79    77   ar
    19    20    23    1
    20    42    41    1
    21    23    24    1
    22     6     5    1
    23    59    60   ar
    24    59    57   ar
    25    24    25    1
    26    60    58   ar
    27    41    40    1
    28     5     2    1
    29    26    25   ar
    30    25    27   ar
    31    57    56   ar
    32    34    32    1
    33    58    56   ar
    34    40    39    1
    35     2     3    1
    36     2     1    1
    37     4     3    2
    38    56    55    1
    39    39    36    1
    40     3     7   am
    41    32    33    1
    42    32    29    1
    43    64    63    2
    44    55    52    1
    45    36    35    1
    46    36    37    1
    47    30    29    1
    48    30    31    2
    49    29    28    1
    50     7     8    1
    51    63    62    1
    52     8    11    1
    53     8     9    1
    54    37    38    2
    55    37    43   am
    56    52    53    1
    57    52    51    1
    58    11    12    1
    59    53    61   am
    60    53    54    2
    61    61    62    1
    62    15     9   am
    63    15    16    1
    64    43    44    1
    65    62    65    1
    66    13    12    2
    67    50    49    2
    68     9    10    2
    69    51    49   am
    70    12    14   am
    71    16    17    1
    72    46    45    2
    73    49    48    1
    74    44    45    1
    75    45    47   am
    76    47    48    1
    77    17    18    2
