@<TRIPOS>MOLECULE
tmp/2ipxA00.pdb
 130 124 0 0 0
SMALL
GASTEIGER

@<TRIPOS>ATOM
      1  N          9.7720    8.1250   45.8000 N.3    69  TYR69      -0.1241
      2  CA        11.2320    8.2140   45.8790 C.3    69  TYR69       0.1605
      3  C         11.8370    6.9220   46.4560 C.2    69  TYR69       0.2264
      4  O         11.7260    6.6510   47.6550 O.2    69  TYR69      -0.2867
      5  CB        11.6440    9.4660   46.6910 C.3    69  TYR69       0.0534
      6  CG        13.1130    9.8570   46.5610 C.ar   69  TYR69      -0.0201
      7  CD1       13.4770   11.0900   46.0220 C.ar   69  TYR69      -0.0009
      8  CD2       14.1380    8.9790   46.9670 C.ar   69  TYR69      -0.0009
      9  CE1       14.8250   11.4560   45.8870 C.ar   69  TYR69       0.0417
     10  CE2       15.4800    9.3380   46.8510 C.ar   69  TYR69       0.0417
     11  CZ        15.8120   10.5820   46.3120 C.ar   69  TYR69       0.1957
     12  OH        17.1410   10.9540   46.1820 O.3    69  TYR69      -0.2866
     13  N         14.9050    4.7320   47.6050 N.3    71  GLY71      -0.1225
     14  CA        16.2660    4.9070   48.1360 C.3    71  GLY71       0.1811
     15  C         16.4320    6.2680   48.7930 C.2    71  GLY71       0.2280
     16  O         17.3790    6.9850   48.5020 O.2    71  GLY71      -0.2866
     17  N         17.2460    7.1970   51.7800 N.3    73  ALA73      -0.1245
     18  CA        18.3430    7.3480   52.7570 C.3    73  ALA73       0.1562
     19  C         17.8580    8.2290   53.9190 C.2    73  ALA73       0.2260
     20  O         16.7440    8.0290   54.3930 O.2    73  ALA73      -0.2867
     21  CB        19.5910    7.9060   52.0790 C.3    73  ALA73       0.0290
     22  N         10.7590    5.9610   50.2470 N.3    94  VAL94      -0.1231
     23  CA        10.9910    4.5430   50.5090 C.3    94  VAL94       0.1692
     24  C         12.4750    4.3060   50.8350 C.2    94  VAL94       0.2592
     25  O         13.3610    4.6160   50.0300 O.2    94  VAL94      -0.2718
     26  CB        10.5690    3.6490   49.3230 C.3    94  VAL94       0.0266
     27  CG1       10.8000    2.1750   49.6530 C.3    94  VAL94       0.0020
     28  CG2        9.1090    3.8810   48.9520 C.3    94  VAL94       0.0020
     29  N         12.7260    3.7390   52.0090 N.am   95  GLU95      -0.1966
     30  CA        14.0920    3.4340   52.4500 C.3    95  GLU95       0.1733
     31  C         14.0260    2.1890   53.3430 C.2    95  GLU95       0.2616
     32  O         13.2060    2.1360   54.2650 O.2    95  GLU95      -0.2715
     33  CB        14.6200    4.6480   53.2190 C.3    95  GLU95       0.0429
     34  CG        15.9720    4.4780   53.8970 C.3    95  GLU95       0.1163
     35  CD        16.9730    3.8300   52.9910 C.2    95  GLU95       0.3649
     36  OE1       17.2360    4.3990   51.9020 O.co2  95  GLU95      -0.2457
     37  OE2       17.4930    2.7550   53.3750 O.co2  95  GLU95      -0.2457
     38  N         14.8510    1.1810   53.0910 N.am   96  PHE96      -0.1960
     39  CA        14.7280   -0.0120   53.9420 C.3    96  PHE96       0.1771
     40  C         15.6180   -0.0660   55.1780 C.2    96  PHE96       0.2620
     41  O         15.3930   -0.9000   56.0470 O.2    96  PHE96      -0.2715
     42  CB        14.7100   -1.3210   53.1430 C.3    96  PHE96       0.0574
     43  CG        16.0470   -1.8000   52.6710 C.ar   96  PHE96      -0.0200
     44  CD1       16.1980   -3.1390   52.3020 C.ar   96  PHE96      -0.0042
     45  CD2       17.1440   -0.9410   52.5440 C.ar   96  PHE96      -0.0042
     46  CE1       17.4210   -3.6130   51.8190 C.ar   96  PHE96      -0.0003
     47  CE2       18.3820   -1.4110   52.0810 C.ar   96  PHE96      -0.0003
     48  CZ        18.5180   -2.7440   51.7140 C.ar   96  PHE96      -0.0000
     49  N         16.5900    0.8520   55.2640 N.am   97  SER97      -0.1950
     50  CA        17.4440    0.9680   56.4480 C.3    97  SER97       0.1924
     51  C         16.6740    1.6100   57.5930 C.2    97  SER97       0.2314
     52  O         16.1930    2.7330   57.4830 O.2    97  SER97      -0.2863
     53  CB        18.7190    1.7670   56.1560 C.3    97  SER97       0.2116
     54  OG        19.3060    2.1840   57.3800 O.3    97  SER97      -0.2180
     55  N         18.5910    4.8590   58.7050 N.3   100  SER100     -0.1217
     56  CA        18.2730    5.9620   57.7990 C.3   100  SER100      0.1889
     57  C         16.8230    6.3670   58.0060 C.2   100  SER100      0.2288
     58  O         16.5110    7.5580   58.0670 O.2   100  SER100     -0.2866
     59  CB        18.5360    5.5670   56.3400 C.3   100  SER100      0.2089
     60  OG        19.9240    5.4250   56.1520 O.3   100  SER100     -0.2183
     61  N         10.4390    0.4250   54.1940 N.3   119  GLU119     -0.1231
     62  CA        10.1600   -0.8930   53.6600 C.3   119  GLU119      0.1699
     63  C         11.1070   -1.1760   52.5160 C.2   119  GLU119      0.2592
     64  O         11.7960   -0.2740   52.0220 O.2   119  GLU119     -0.2718
     65  CB         8.7090   -0.9820   53.1520 C.3   119  GLU119      0.0402
     66  CG         7.6150   -0.6730   54.1660 C.3   119  GLU119      0.1161
     67  CD         7.4790   -1.7380   55.2570 C.2   119  GLU119      0.3649
     68  OE1        8.0300   -2.8530   55.0930 O.co2 119  GLU119     -0.2457
     69  OE2        6.7960   -1.4490   56.2710 O.co2 119  GLU119     -0.2457
     70  N         11.1170   -2.4380   52.0970 N.am  120  ASP120     -0.1960
     71  CA        11.9560   -2.9250   51.0320 C.3   120  ASP120      0.1840
     72  C         11.2340   -2.7160   49.7210 C.2   120  ASP120      0.2622
     73  O         10.1690   -3.2980   49.5030 O.2   120  ASP120     -0.2715
     74  CB        12.2140   -4.4180   51.2560 C.3   120  ASP120      0.1450
     75  CG        13.0950   -5.0570   50.1970 C.2   120  ASP120      0.3671
     76  OD1       13.5030   -4.4130   49.1970 O.co2 120  ASP120     -0.2456
     77  OD2       13.3860   -6.2640   50.3900 O.co2 120  ASP120     -0.2456
     78  N         11.8470   -1.9080   48.8610 N.am  121  ALA121     -0.1963
     79  CA        11.2860   -1.5320   47.5550 C.3   121  ALA121      0.1728
     80  C         11.0940   -2.7020   46.6040 C.2   121  ALA121      0.2616
     81  O         10.4650   -2.5550   45.5600 O.2   121  ALA121     -0.2715
     82  CB        12.1590   -0.4860   46.9060 C.3   121  ALA121      0.0334
     83  N         11.6500   -3.8640   46.9580 N.am  122  ARG122     -0.1977
     84  CA        11.5100   -5.0650   46.1410 C.3   122  ARG122      0.1597
     85  C         10.1450   -5.7080   46.2880 C.2   122  ARG122      0.2287
     86  O          9.7470   -6.5190   45.4480 O.2   122  ARG122     -0.2864
     87  CB        12.5940   -6.0900   46.4850 C.3   122  ARG122      0.0334
     88  CG        13.9600   -5.7250   45.9940 C.3   122  ARG122      0.0492
     89  CD        14.9700   -6.8950   46.1690 C.3   122  ARG122      0.2205
     90  NE        16.2720   -6.4690   45.6660 N.pl3 122  ARG122     -0.0865
     91  CZ        17.2410   -5.9450   46.4120 C.cat 122  ARG122      0.5346
     92  NH1       17.0840   -5.8260   47.7230 N.pl3 122  ARG122      0.1354
     93  NH2       18.3860   -5.5660   45.8410 N.pl3 122  ARG122      0.1354
     94  N         17.1150    5.7830   43.2350 N.3   138  ASP138     -0.1225
     95  CA        18.5510    5.8490   43.4920 C.3   138  ASP138      0.1805
     96  C         18.8650    4.8110   44.5820 C.2   138  ASP138      0.2598
     97  O         19.2750    5.1620   45.6820 O.2   138  ASP138     -0.2718
     98  CB        18.9160    7.2870   43.9090 C.3   138  ASP138      0.1424
     99  CG        20.4080    7.4940   44.1380 C.2   138  ASP138      0.3668
    100  OD1       21.2420    6.7940   43.5200 O.co2 138  ASP138     -0.2456
    101  OD2       20.7400    8.3900   44.9310 O.co2 138  ASP138     -0.2456
    102  N         18.6170    3.5390   44.2880 N.am  139  VAL139     -0.1966
    103  CA        18.7940    2.4740   45.3070 C.3   139  VAL139      0.1727
    104  C         20.1530    1.7810   45.2330 C.2   139  VAL139      0.2616
    105  O         20.5160    1.0190   46.1380 O.2   139  VAL139     -0.2715
    106  CB        17.6670    1.3990   45.2860 C.3   139  VAL139      0.0290
    107  CG1       16.3070    2.0240   45.6500 C.3   139  VAL139      0.0023
    108  CG2       17.5920    0.6790   43.9410 C.3   139  VAL139      0.0023
    109  N         20.8840    2.0270   44.1480 N.am  140  ALA140     -0.1963
    110  CA        22.2450    1.4810   43.9880 C.3   140  ALA140      0.1728
    111  C         22.2640   -0.0490   44.1520 C.2   140  ALA140      0.2616
    112  O         23.0060   -0.6000   44.9770 O.2   140  ALA140     -0.2715
    113  CB        23.1970    2.1560   44.9710 C.3   140  ALA140      0.0334
    114  N         21.4260   -0.7230   43.3700 N.am  141  GLN141     -0.1977
    115  CA        21.2480   -2.1680   43.4620 C.3   141  GLN141      0.1601
    116  C         21.3160   -2.7130   42.0510 C.2   141  GLN141      0.2287
    117  O         20.8610   -2.0510   41.1190 O.2   141  GLN141     -0.2864
    118  CB        19.8860   -2.5340   44.0860 C.3   141  GLN141      0.0394
    119  CG        19.7580   -2.2720   45.5780 C.3   141  GLN141      0.0908
    120  CD        20.7680   -3.0400   46.3990 C.2   141  GLN141      0.2608
    121  OE1       20.9510   -4.2440   46.2090 O.2   141  GLN141     -0.2717
    122  NE2       21.4320   -2.3480   47.3230 N.am  141  GLN141     -0.0878
    123  N         13.2430   -3.4500   40.1330 N.3   147  ILE147     -0.1245
    124  CA        12.6010   -2.7210   41.2490 C.3   147  ILE147      0.1561
    125  C         11.7110   -1.5680   40.7740 C.2   147  ILE147      0.2260
    126  O         10.5620   -1.4540   41.1980 O.2   147  ILE147     -0.2867
    127  CB        13.6390   -2.2380   42.2960 C.3   147  ILE147      0.0252
    128  CG1       14.3020   -3.4540   42.9500 C.3   147  ILE147      0.0019
    129  CG2       12.9850   -1.3510   43.3830 C.3   147  ILE147      0.0019
    130  CD1       15.4090   -3.1240   43.9270 C.3   147  ILE147      0.0001
@<TRIPOS>BOND
     1   123   124    1
     2   125   126    2
     3   125   124    1
     4   117   116    2
     5   124   127    1
     6   116   115    1
     7   127   128    1
     8   127   129    1
     9   128   130    1
    10    94    95    1
    11   114   115    1
    12   114   111   am
    13   115   118    1
    14    95    98    1
    15    95    96    1
    16   100    99   ar
    17    98    99    1
    18   108   106    1
    19   110   109    1
    20   110   111    1
    21   110   113    1
    22   118   119    1
    23    99   101   ar
    24   109   104   am
    25   111   112    2
    26   102    96   am
    27   102   103    1
    28    96    97    2
    29   104   103    1
    30   104   105    2
    31   106   103    1
    32   106   107    1
    33    86    85    2
    34    81    80    2
    35   119   120    1
    36    90    89    1
    37    90    91    2
    38     1     2    1
    39    93    91    1
    40     2     3    1
    41     2     5    1
    42     9     7   ar
    43     9    11   ar
    44    88    89    1
    45    88    87    1
    46     7     6   ar
    47    84    85    1
    48    84    87    1
    49    84    83    1
    50    12    11    1
    51   121   120    2
    52    11    10   ar
    53   120   122   am
    54    91    92    1
    55     3     4    2
    56     6     5    1
    57     6     8   ar
    58    80    83   am
    59    80    79    1
    60    10     8   ar
    61    82    79    1
    62    79    78    1
    63    13    14    1
    64    14    15    1
    65    16    15    2
    66    78    72   am
    67    28    26    1
    68    76    75   ar
    69    26    27    1
    70    26    23    1
    71    73    72    2
    72    72    71    1
    73    25    24    2
    74    75    77   ar
    75    75    74    1
    76    22    23    1
    77    23    24    1
    78    24    29   am
    79    71    74    1
    80    71    70    1
    81    48    46   ar
    82    48    47   ar
    83    17    18    1
    84    46    44   ar
    85    36    35   ar
    86    29    30    1
    87    64    63    2
    88    21    18    1
    89    47    45   ar
    90    70    63   am
    91    44    43   ar
    92    30    33    1
    93    30    31    1
    94    63    62    1
    95    45    43   ar
    96    43    42    1
    97    18    19    1
    98    35    37   ar
    99    35    34    1
   100    38    31   am
   101    38    39    1
   102    42    39    1
   103    65    62    1
   104    65    66    1
   105    33    34    1
   106    31    32    2
   107    62    61    1
   108    19    20    2
   109    39    40    1
   110    66    67    1
   111    68    67   ar
   112    40    49   am
   113    40    41    2
   114    67    69   ar
   115    49    50    1
   116    60    59    1
   117    53    50    1
   118    53    54    1
   119    59    56    1
   120    50    51    1
   121    52    51    2
   122    56    57    1
   123    56    55    1
   124    57    58    2
