@<TRIPOS>MOLECULE
tmp/2iq7A00.pdb
 87 81 0 0 0
SMALL
GASTEIGER

@<TRIPOS>ATOM
      1  N         19.6850    5.1860   37.4130 N.3    69  ASN69      -0.1240
      2  CA        19.4710    3.8670   38.0390 C.3    69  ASN69       0.1653
      3  C         18.3800    3.0730   37.3090 C.2    69  ASN69       0.2266
      4  O         17.5560    2.3820   37.9210 O.2    69  ASN69      -0.2867
      5  CB        19.1350    3.9860   39.5520 C.3    69  ASN69       0.1155
      6  CG        20.2610    4.5920   40.3740 C.2    69  ASN69       0.2627
      7  OD1       21.4440    4.4420   40.0580 O.2    69  ASN69      -0.2716
      8  ND2       19.8960    5.2690   41.4630 N.am   69  ASN69      -0.0877
      9  N         24.1250    5.8130   35.6400 N.3   110  SER110     -0.1217
     10  CA        24.2140    4.6380   36.5120 C.3   110  SER110      0.1889
     11  C         23.1050    3.6330   36.1450 C.2   110  SER110      0.2288
     12  O         22.3310    3.1890   37.0070 O.2   110  SER110     -0.2866
     13  CB        24.1240    5.0450   38.0060 C.3   110  SER110      0.2089
     14  OG        25.2290    5.8560   38.3890 O.3   110  SER110     -0.2183
     15  N         21.6470    0.3330   33.2240 N.3   112  ASN112     -0.1240
     16  CA        22.0250   -0.8860   32.5090 C.3   112  ASN112      0.1653
     17  C         20.9920   -1.3350   31.5050 C.2   112  ASN112      0.2266
     18  O         19.7800   -1.2440   31.7490 O.2   112  ASN112     -0.2867
     19  CB        22.2790   -2.0320   33.4830 C.3   112  ASN112      0.1155
     20  CG        23.4460   -1.7710   34.3740 C.2   112  ASN112      0.2627
     21  OD1       24.5810   -1.6600   33.9120 O.2   112  ASN112     -0.2716
     22  ND2       23.1810   -1.6480   35.6680 N.am  112  ASN112     -0.0877
     23  N         28.0100    6.2790   33.0410 N.3   133  THR133     -0.1203
     24  CA        28.0430    4.9230   33.6070 C.3   133  THR133      0.1994
     25  C         26.8400    4.1050   33.1410 C.2   133  THR133      0.2617
     26  O         25.7850    4.0790   33.7960 O.2   133  THR133     -0.2717
     27  CB        28.1460    4.9210   35.1580 C.3   133  THR133      0.1784
     28  OG1       29.1140    5.9010   35.5600 O.3   133  THR133     -0.2211
     29  CG2       28.5700    3.5300   35.6730 C.3   133  THR133      0.0376
     30  N         27.0210    3.4430   32.0020 N.am  134  LEU134     -0.1979
     31  CA        25.9660    2.6900   31.3450 C.3   134  LEU134      0.1596
     32  C         26.5000    1.3460   30.9020 C.2   134  LEU134      0.2287
     33  O         27.4200    1.2680   30.0700 O.2   134  LEU134     -0.2864
     34  CB        25.4020    3.4750   30.1250 C.3   134  LEU134      0.0297
     35  CG        24.3790    2.7420   29.2480 C.3   134  LEU134      0.0022
     36  CD1       23.0670    2.5520   30.0440 C.3   134  LEU134      0.0001
     37  CD2       24.1080    3.5550   27.9490 C.3   134  LEU134      0.0001
     38  N         24.8120   -5.0450   28.1090 N.3   137  TYR137     -0.1241
     39  CA        25.2190   -6.4410   28.2480 C.3   137  TYR137      0.1605
     40  C         24.3890   -7.3700   27.3790 C.2   137  TYR137      0.2264
     41  O         23.1570   -7.2800   27.3830 O.2   137  TYR137     -0.2867
     42  CB        25.0530   -6.8740   29.6910 C.3   137  TYR137      0.0534
     43  CG        26.0590   -6.3090   30.6480 C.ar  137  TYR137     -0.0201
     44  CD1       25.8410   -5.0900   31.2960 C.ar  137  TYR137     -0.0009
     45  CD2       27.2240   -7.0130   30.9410 C.ar  137  TYR137     -0.0009
     46  CE1       26.7800   -4.5910   32.2230 C.ar  137  TYR137      0.0417
     47  CE2       28.1650   -6.5130   31.8490 C.ar  137  TYR137      0.0417
     48  CZ        27.9340   -5.3140   32.4850 C.ar  137  TYR137      0.1957
     49  OH        28.8730   -4.8530   33.3880 O.3   137  TYR137     -0.2866
     50  N         32.0160    6.1340   30.9460 N.3   164  GLY164     -0.1210
     51  CA        31.7530    4.8860   31.6610 C.3   164  GLY164      0.1956
     52  C         30.7930    3.9410   30.9590 C.2   164  GLY164      0.2612
     53  O         30.0290    3.2160   31.6090 O.2   164  GLY164     -0.2717
     54  N         30.8350    3.9520   29.6320 N.am  165  VAL165     -0.1965
     55  CA        30.0160    3.0400   28.8340 C.3   165  VAL165      0.1727
     56  C         30.7390    1.6950   28.7390 C.2   165  VAL165      0.2616
     57  O         31.9180    1.6340   28.3650 O.2   165  VAL165     -0.2715
     58  CB        29.7600    3.6050   27.4330 C.3   165  VAL165      0.0290
     59  CG1       28.9860    2.5830   26.5370 C.3   165  VAL165      0.0023
     60  CG2       29.0350    4.9620   27.5300 C.3   165  VAL165      0.0023
     61  N         30.0160    0.6260   29.0480 N.am  166  TYR166     -0.1974
     62  CA        30.6010   -0.6920   29.1310 C.3   166  TYR166      0.1639
     63  C         29.7290   -1.6380   28.3300 C.2   166  TYR166      0.2290
     64  O         28.6650   -2.0840   28.7890 O.2   166  TYR166     -0.2864
     65  CB        30.7250   -1.1240   30.6030 C.3   166  TYR166      0.0560
     66  CG        31.4860   -2.4090   30.8060 C.ar  166  TYR166     -0.0198
     67  CD1       30.8330   -3.6500   30.7650 C.ar  166  TYR166     -0.0009
     68  CD2       32.8660   -2.3900   31.0270 C.ar  166  TYR166     -0.0009
     69  CE1       31.5540   -4.8430   30.9590 C.ar  166  TYR166      0.0417
     70  CE2       33.5930   -3.5680   31.1970 C.ar  166  TYR166      0.0417
     71  CZ        32.9240   -4.7890   31.1670 C.ar  166  TYR166      0.1957
     72  OH        33.6170   -5.9710   31.3400 O.3   166  TYR166     -0.2866
     73  N         36.4270    6.5690   29.1590 N.3   186  ASN186     -0.1240
     74  CA        36.2170    5.3210   29.8650 C.3   186  ASN186      0.1653
     75  C         35.0800    4.5580   29.1750 C.2   186  ASN186      0.2266
     76  O         33.9790    4.3640   29.7390 O.2   186  ASN186     -0.2867
     77  CB        35.9500    5.5780   31.3540 C.3   186  ASN186      0.1155
     78  CG        35.5920    4.3200   32.1120 C.2   186  ASN186      0.2627
     79  OD1       35.9840    3.2140   31.7280 O.2   186  ASN186     -0.2716
     80  ND2       34.8310    4.4910   33.2060 N.am  186  ASN186     -0.0877
     81  N         34.2300    0.9930   27.1090 N.3   188  THR188     -0.1218
     82  CA        34.6500   -0.3870   26.8560 C.3   188  THR188      0.1862
     83  C         33.7150   -1.1060   25.8980 C.2   188  THR188      0.2287
     84  O         32.4850   -0.9770   25.9980 O.2   188  THR188     -0.2866
     85  CB        34.7290   -1.1780   28.1790 C.3   188  THR188      0.1770
     86  OG1       35.5940   -0.4860   29.0810 O.3   188  THR188     -0.2211
     87  CG2       35.2290   -2.6250   27.9950 C.3   188  THR188      0.0375
@<TRIPOS>BOND
     1    83    84    2
     2    83    82    1
     3    59    58    1
     4    82    81    1
     5    82    85    1
     6    40    41    2
     7    40    39    1
     8    58    60    1
     9    58    55    1
    10    37    35    1
    11    87    85    1
    12    38    39    1
    13    85    86    1
    14    39    42    1
    15    63    64    2
    16    63    62    1
    17    57    56    2
    18    56    55    1
    19    56    61   am
    20    55    54    1
    21    61    62    1
    22    62    65    1
    23    73    74    1
    24    75    76    2
    25    75    74    1
    26    35    36    1
    27    35    34    1
    28    54    52   am
    29    42    43    1
    30    74    77    1
    31    33    32    2
    32    34    31    1
    33    65    66    1
    34    43    45   ar
    35    43    44   ar
    36    67    66   ar
    37    67    69   ar
    38    66    68   ar
    39    32    31    1
    40    45    47   ar
    41    50    51    1
    42    52    53    2
    43    52    51    1
    44    69    71   ar
    45    68    70   ar
    46    71    70   ar
    47    71    72    1
    48    44    46   ar
    49    31    30    1
    50    77    78    1
    51    17    18    2
    52    17    16    1
    53    79    78    2
    54    47    48   ar
    55    30    25   am
    56    78    80   am
    57    46    48   ar
    58    48    49    1
    59    16    15    1
    60    16    19    1
    61    23    24    1
    62    25    24    1
    63    25    26    2
    64    19    20    1
    65    24    27    1
    66    21    20    2
    67    20    22   am
    68    27    28    1
    69    27    29    1
    70     9    10    1
    71    11    10    1
    72    11    12    2
    73    10    13    1
    74     3     4    2
    75     3     2    1
    76     1     2    1
    77    13    14    1
    78     2     5    1
    79     5     6    1
    80     7     6    2
    81     6     8   am
