@<TRIPOS>MOLECULE
tmp/2iq7F03.pdb
 86 82 0 0 0
SMALL
GASTEIGER

@<TRIPOS>ATOM
      1  N         40.6100   19.8490   40.4190 N.3   100  LYS100     -0.1245
      2  CA        39.9950   20.6690   41.4580 C.3   100  LYS100      0.1561
      3  C         41.1020   21.4310   42.1640 C.2   100  LYS100      0.2260
      4  O         42.2120   20.9100   42.3060 O.2   100  LYS100     -0.2867
      5  CB        39.2580   19.7870   42.4640 C.3   100  LYS100      0.0271
      6  CG        38.1940   18.9140   41.8350 C.3   100  LYS100      0.0035
      7  CD        36.8090   19.4590   42.0520 C.3   100  LYS100      0.0206
      8  CE        35.7320   18.4710   41.5860 C.3   100  LYS100      0.1093
      9  NZ        35.2100   17.5650   42.6370 N.3   100  LYS100     -0.1314
     10  N         41.3540   21.8110   48.4480 N.3   103  TYR103     -0.1241
     11  CA        40.5540   21.0070   49.3560 C.3   103  TYR103      0.1605
     12  C         40.8090   21.5220   50.7590 C.2   103  TYR103      0.2264
     13  O         41.9060   21.3490   51.3100 O.2   103  TYR103     -0.2867
     14  CB        40.9210   19.5240   49.2490 C.3   103  TYR103      0.0534
     15  CG        40.3700   18.8040   48.0320 C.ar  103  TYR103     -0.0201
     16  CD1       39.6830   19.4910   47.0170 C.ar  103  TYR103     -0.0009
     17  CD2       40.5440   17.4240   47.8970 C.ar  103  TYR103     -0.0009
     18  CE1       39.1830   18.8150   45.9020 C.ar  103  TYR103      0.0417
     19  CE2       40.0560   16.7410   46.7830 C.ar  103  TYR103      0.0417
     20  CZ        39.3850   17.4440   45.7920 C.ar  103  TYR103      0.1957
     21  OH        38.9170   16.7560   44.6930 O.3   103  TYR103     -0.2866
     22  N         39.6970   20.4130   53.6210 N.3   105  HIS105     -0.1241
     23  CA        39.0480   19.2860   54.3000 C.3   105  HIS105      0.1621
     24  C         39.6530   19.0200   55.6740 C.2   105  HIS105      0.2264
     25  O         40.8410   19.2580   55.9030 O.2   105  HIS105     -0.2867
     26  CB        39.0770   17.9970   53.4470 C.3   105  HIS105      0.0745
     27  CG        38.2610   18.0740   52.1850 C.ar  105  HIS105      0.0817
     28  ND1       37.8760   16.9520   51.4780 N.ar  105  HIS105     -0.2268
     29  CD2       37.7740   19.1370   51.4960 C.ar  105  HIS105      0.1154
     30  CE1       37.1860   17.3210   50.4120 C.ar  105  HIS105      0.1986
     31  NE2       37.1060   18.6410   50.4030 N.ar  105  HIS105     -0.2212
     32  N         36.3780   23.6340   39.8010 N.3   123  GLN123     -0.1231
     33  CA        35.9390   24.1300   41.1130 C.3   123  GLN123      0.1698
     34  C         37.1050   24.6980   41.9400 C.2   123  GLN123      0.2592
     35  O         38.2380   24.1930   41.8720 O.2   123  GLN123     -0.2718
     36  CB        35.2050   23.0390   41.8930 C.3   123  GLN123      0.0381
     37  CG        33.8990   22.5730   41.2290 C.3   123  GLN123      0.0905
     38  CD        34.0600   21.3570   40.3080 C.2   123  GLN123      0.2608
     39  OE1       35.1410   21.0760   39.7660 O.2   123  GLN123     -0.2717
     40  NE2       32.9570   20.6230   40.1280 N.am  123  GLN123     -0.0878
     41  N         36.8220   25.7440   42.7100 N.am  124  ALA124     -0.1966
     42  CA        37.8470   26.4210   43.4820 C.3   124  ALA124      0.1728
     43  C         37.9870   25.7260   44.8320 C.2   124  ALA124      0.2616
     44  O         38.8010   24.8060   44.9740 O.2   124  ALA124     -0.2715
     45  CB        37.5140   27.9090   43.6450 C.3   124  ALA124      0.0334
     46  N         37.1640   26.1160   45.7970 N.am  125  PHE125     -0.1960
     47  CA        37.2690   25.5780   47.1670 C.3   125  PHE125      0.1771
     48  C         36.2280   24.4960   47.4540 C.2   125  PHE125      0.2620
     49  O         35.0150   24.7030   47.2650 O.2   125  PHE125     -0.2715
     50  CB        37.1390   26.6940   48.2150 C.3   125  PHE125      0.0574
     51  CG        38.3210   27.6330   48.2630 C.ar  125  PHE125     -0.0200
     52  CD1       39.3560   27.4270   49.1750 C.ar  125  PHE125     -0.0042
     53  CD2       38.4100   28.7120   47.3840 C.ar  125  PHE125     -0.0042
     54  CE1       40.4510   28.2870   49.2180 C.ar  125  PHE125     -0.0003
     55  CE2       39.5000   29.5690   47.4170 C.ar  125  PHE125     -0.0003
     56  CZ        40.5230   29.3600   48.3430 C.ar  125  PHE125     -0.0000
     57  N         36.7120   23.3480   47.9200 N.am  126  SER126     -0.1950
     58  CA        35.8520   22.2870   48.4390 C.3   126  SER126      0.1924
     59  C         36.0410   22.2380   49.9520 C.2   126  SER126      0.2314
     60  O         37.1670   22.1230   50.4400 O.2   126  SER126     -0.2863
     61  CB        36.2030   20.9450   47.8100 C.3   126  SER126      0.2116
     62  OG        35.4860   19.8940   48.4410 O.3   126  SER126     -0.2180
     63  N         34.8880   20.1610   53.2230 N.3   128  ASN128     -0.1240
     64  CA        34.2650   18.9140   53.6390 C.3   128  ASN128      0.1653
     65  C         34.8960   18.4970   54.9630 C.2   128  ASN128      0.2266
     66  O         36.1040   18.6720   55.1510 O.2   128  ASN128     -0.2867
     67  CB        34.4810   17.8420   52.5690 C.3   128  ASN128      0.1155
     68  CG        33.6300   16.6030   52.7850 C.2   128  ASN128      0.2627
     69  OD1       33.8680   15.8240   53.7030 O.2   128  ASN128     -0.2716
     70  ND2       32.6370   16.4050   51.9150 N.am  128  ASN128     -0.0877
     71  N         32.8400   26.4460   40.2750 N.3   154  ASP154     -0.1239
     72  CA        32.1960   26.7480   41.5660 C.3   154  ASP154      0.1674
     73  C         33.1840   27.3640   42.5250 C.2   154  ASP154      0.2266
     74  O         34.3210   26.8920   42.6240 O.2   154  ASP154     -0.2867
     75  CB        31.7060   25.4880   42.2850 C.3   154  ASP154      0.1410
     76  CG        30.9220   24.5610   41.4230 C.2   154  ASP154      0.3668
     77  OD1       31.1030   24.5340   40.1880 O.co2 154  ASP154     -0.2456
     78  OD2       30.1390   23.7880   42.0240 O.co2 154  ASP154     -0.2456
     79  N         32.1550   24.8590   47.4820 N.3   157  ASP157     -0.1239
     80  CA        31.2580   23.7350   47.6780 C.3   157  ASP157      0.1674
     81  C         31.4130   23.2000   49.0920 C.2   157  ASP157      0.2266
     82  O         32.5340   22.9420   49.5500 O.2   157  ASP157     -0.2867
     83  CB        31.5250   22.6160   46.6790 C.3   157  ASP157      0.1410
     84  CG        30.4390   21.5700   46.6950 C.2   157  ASP157      0.3668
     85  OD1       29.3760   21.8080   46.0760 O.co2 157  ASP157     -0.2456
     86  OD2       30.6430   20.5100   47.3350 O.co2 157  ASP157     -0.2456
@<TRIPOS>BOND
     1    39    38    2
     2    32    33    1
     3    40    38   am
     4    77    76   ar
     5    71    72    1
     6    38    37    1
     7     1     2    1
     8    33    36    1
     9    33    34    1
    10    37    36    1
    11    76    78   ar
    12    76    75    1
    13     2     3    1
    14     2     5    1
    15    72    75    1
    16    72    73    1
    17     8     7    1
    18     8     9    1
    19     6     7    1
    20     6     5    1
    21    35    34    2
    22    34    41   am
    23     3     4    2
    24    73    74    2
    25    41    42    1
    26    42    45    1
    27    42    43    1
    28    21    20    1
    29    43    44    2
    30    43    46   am
    31    20    18   ar
    32    20    19   ar
    33    46    47    1
    34    18    16   ar
    35    85    84   ar
    36    83    84    1
    37    83    80    1
    38    84    86   ar
    39    19    17   ar
    40    16    15   ar
    41    47    48    1
    42    47    50    1
    43    49    48    2
    44    53    55   ar
    45    53    51   ar
    46    55    56   ar
    47    48    57   am
    48    79    80    1
    49    80    81    1
    50    61    58    1
    51    61    62    1
    52    17    15   ar
    53    57    58    1
    54    15    14    1
    55    50    51    1
    56    51    52   ar
    57    56    54   ar
    58    58    59    1
    59    10    11    1
    60    81    82    2
    61    52    54   ar
    62    14    11    1
    63    11    12    1
    64    59    60    2
    65    31    30   ar
    66    31    29   ar
    67    30    28   ar
    68    12    13    2
    69    28    27   ar
    70    29    27   ar
    71    70    68   am
    72    27    26    1
    73    67    68    1
    74    67    64    1
    75    68    69    2
    76    63    64    1
    77    26    23    1
    78    22    23    1
    79    64    65    1
    80    23    24    1
    81    65    66    2
    82    24    25    2
