@<TRIPOS>MOLECULE
tmp/2iq7E00.pdb
 86 86 0 0 0
SMALL
GASTEIGER

@<TRIPOS>ATOM
      1  N         45.6950    4.4360   41.2000 N.3   214  LYS214     -0.1245
      2  CA        44.6840    4.0850   40.2020 C.3   214  LYS214      0.1561
      3  C         45.1260    2.9150   39.3360 C.2   214  LYS214      0.2260
      4  O         46.2550    2.9080   38.8340 O.2   214  LYS214     -0.2867
      5  CB        44.3310    5.3010   39.3300 C.3   214  LYS214      0.0271
      6  CG        43.1280    5.0580   38.4050 C.3   214  LYS214      0.0035
      7  CD        42.7460    6.2650   37.5710 C.3   214  LYS214      0.0206
      8  CE        41.5000    5.9470   36.7170 C.3   214  LYS214      0.1093
      9  NZ        40.7290    7.1780   36.2880 N.3   214  LYS214     -0.1314
     10  N         41.5240    3.9280   43.5270 N.3   243  SER243     -0.1217
     11  CA        40.4920    3.4500   42.6080 C.3   243  SER243      0.1889
     12  C         40.9760    2.3890   41.6250 C.2   243  SER243      0.2288
     13  O         42.1300    2.4090   41.1940 O.2   243  SER243     -0.2866
     14  CB        39.8180    4.6150   41.8560 C.3   243  SER243      0.2089
     15  OG        40.7210    5.2780   41.0050 O.3   243  SER243     -0.2183
     16  N         31.3280    1.1340   45.2900 N.3   311  ASN311     -0.1225
     17  CA        31.6300    0.3230   44.1110 C.3   311  ASN311      0.1785
     18  C         32.7050   -0.7340   44.4050 C.2   311  ASN311      0.2597
     19  O         33.8310   -0.6820   43.8830 O.2   311  ASN311     -0.2718
     20  CB        32.0410    1.1880   42.9020 C.3   311  ASN311      0.1169
     21  CG        32.2670    0.3550   41.6630 C.2   311  ASN311      0.2627
     22  OD1       31.7150   -0.7380   41.5480 O.2   311  ASN311     -0.2716
     23  ND2       33.0920    0.8490   40.7370 N.am  311  ASN311     -0.0877
     24  N         32.3550   -1.6790   45.2640 N.am  312  TRP312     -0.1962
     25  CA        33.2260   -2.8080   45.5220 C.3   312  TRP312      0.1771
     26  C         32.5490   -4.0610   45.0100 C.2   312  TRP312      0.2619
     27  O         31.3120   -4.1250   44.9060 O.2   312  TRP312     -0.2715
     28  CB        33.4840   -2.9890   47.0140 C.3   312  TRP312      0.0590
     29  CG        34.3230   -1.9590   47.6960 C.ar  312  TRP312      0.0006
     30  CD1       34.6850   -0.7240   47.2260 C.ar  312  TRP312      0.0946
     31  CD2       34.8760   -2.0660   49.0090 C.ar  312  TRP312      0.0152
     32  NE1       35.4390   -0.0700   48.1620 N.ar  312  TRP312     -0.2442
     33  CE2       35.5770   -0.8680   49.2660 C.ar  312  TRP312      0.0810
     34  CE3       34.8500   -3.0630   49.9970 C.ar  312  TRP312      0.0012
     35  CZ2       36.2450   -0.6290   50.4760 C.ar  312  TRP312      0.0191
     36  CZ3       35.5260   -2.8330   51.2070 C.ar  312  TRP312      0.0001
     37  CH2       36.1990   -1.6190   51.4350 C.ar  312  TRP312      0.0015
     38  N         33.3740   -5.0610   44.7140 N.am  313  LYS313     -0.1963
     39  CA        32.8910   -6.3690   44.3340 C.3   313  LYS313      0.1728
     40  C         33.8090   -7.4260   44.9340 C.2   313  LYS313      0.2616
     41  O         34.9850   -7.5240   44.5630 O.2   313  LYS313     -0.2715
     42  CB        32.8530   -6.4870   42.8030 C.3   313  LYS313      0.0311
     43  CG        32.4120   -7.8440   42.2990 C.3   313  LYS313      0.0038
     44  CD        32.4610   -7.8930   40.7760 C.3   313  LYS313      0.0206
     45  CE        32.0280   -9.2530   40.2520 C.3   313  LYS313      0.1093
     46  NZ        30.6380   -9.6240   40.6450 N.3   313  LYS313     -0.1314
     47  N         33.2710   -8.2170   45.8590 N.am  314  TRP314     -0.1960
     48  CA        34.0220   -9.2920   46.4870 C.3   314  TRP314      0.1771
     49  C         33.3830  -10.6230   46.1280 C.2   314  TRP314      0.2620
     50  O         32.1710  -10.7800   46.2650 O.2   314  TRP314     -0.2715
     51  CB        34.0400   -9.1310   48.0160 C.3   314  TRP314      0.0590
     52  CG        34.8930   -8.0030   48.5820 C.ar  314  TRP314      0.0006
     53  CD1       35.2210   -6.8180   47.9800 C.ar  314  TRP314      0.0946
     54  CD2       35.4830   -7.9590   49.8940 C.ar  314  TRP314      0.0152
     55  NE1       35.9910   -6.0530   48.8240 N.ar  314  TRP314     -0.2442
     56  CE2       36.1560   -6.7250   50.0100 C.ar  314  TRP314      0.0810
     57  CE3       35.4970   -8.8460   50.9850 C.ar  314  TRP314      0.0012
     58  CZ2       36.8410   -6.3490   51.1840 C.ar  314  TRP314      0.0191
     59  CZ3       36.1840   -8.4860   52.1390 C.ar  314  TRP314      0.0001
     60  CH2       36.8550   -7.2500   52.2260 C.ar  314  TRP314      0.0015
     61  N         34.1820  -11.5760   45.6530 N.am  315  SER315     -0.1950
     62  CA        33.6700  -12.9340   45.4080 C.3   315  SER315      0.1924
     63  C         34.7400  -13.9560   45.7160 C.2   315  SER315      0.2314
     64  O         35.9220  -13.6700   45.5770 O.2   315  SER315     -0.2863
     65  CB        33.1630  -13.1050   43.9660 C.3   315  SER315      0.2116
     66  OG        34.2050  -12.9100   43.0230 O.3   315  SER315     -0.2180
     67  N         27.4210   -1.1490   50.1260 N.3   333  SER333     -0.1202
     68  CA        26.2320   -1.9490   49.8870 C.3   333  SER333      0.2020
     69  C         26.2990   -2.7400   48.5770 C.2   333  SER333      0.2619
     70  O         26.9120   -2.3000   47.5980 O.2   333  SER333     -0.2717
     71  CB        24.9780   -1.0590   49.9330 C.3   333  SER333      0.2103
     72  OG        25.1110    0.0380   49.0530 O.3   333  SER333     -0.2182
     73  N         25.6860   -3.9210   48.5780 N.am  334  GLY334     -0.1942
     74  CA        25.6130   -4.7780   47.3830 C.3   334  GLY334      0.2014
     75  C         26.9460   -5.1830   46.7750 C.2   334  GLY334      0.2640
     76  O         27.0130   -5.4730   45.5750 O.2   334  GLY334     -0.2714
     77  N         27.9950   -5.1960   47.5990 N.am  335  SER335     -0.1935
     78  CA        29.3690   -5.5150   47.1690 C.3   335  SER335      0.2055
     79  C         29.7440   -6.9810   47.4000 C.2   335  SER335      0.2643
     80  O         30.6590   -7.5220   46.7650 O.2   335  SER335     -0.2714
     81  CB        30.3730   -4.6280   47.9110 C.3   335  SER335      0.2130
     82  OG        30.3990   -4.9170   49.3080 O.3   335  SER335     -0.2179
     83  N         29.0500   -7.6120   48.3390 N.am  336  GLY336     -0.1954
     84  CA        29.4060   -8.9540   48.7650 C.3   336  GLY336      0.1869
     85  C         30.5350   -8.9310   49.7890 C.2   336  GLY336      0.2309
     86  O         30.9200   -9.9700   50.2990 O.2   336  GLY336     -0.2863
@<TRIPOS>BOND
     1     9     8    1
     2     8     7    1
     3     7     6    1
     4     6     5    1
     5     4     3    2
     6     5     2    1
     7     3     2    1
     8     2     1    1
     9    45    46    1
    10    45    44    1
    11    23    21   am
    12    44    43    1
    13    15    14    1
    14    13    12    2
    15    22    21    2
    16    12    11    1
    17    21    20    1
    18    14    11    1
    19    43    42    1
    20    11    10    1
    21    42    39    1
    22    20    17    1
    23    66    65    1
    24    19    18    2
    25    65    62    1
    26    17    18    1
    27    17    16    1
    28    39    38    1
    29    39    40    1
    30    18    24   am
    31    41    40    2
    32    38    26   am
    33    27    26    2
    34    40    47   am
    35    26    25    1
    36    24    25    1
    37    62    61    1
    38    62    63    1
    39    25    28    1
    40    76    75    2
    41    64    63    2
    42    61    49   am
    43    47    48    1
    44    49    50    2
    45    49    48    1
    46    48    51    1
    47    80    79    2
    48    75    74    1
    49    75    77   am
    50    28    29    1
    51    78    79    1
    52    78    77    1
    53    78    81    1
    54    30    29   ar
    55    30    32   ar
    56    74    73    1
    57    79    83   am
    58    70    69    2
    59    29    31   ar
    60    81    82    1
    61    53    52   ar
    62    53    55   ar
    63    51    52    1
    64    32    33   ar
    65    83    84    1
    66    69    73   am
    67    69    68    1
    68    52    54   ar
    69    84    85    1
    70    55    56   ar
    71    31    33   ar
    72    31    34   ar
    73    72    71    1
    74    33    35   ar
    75    85    86    2
    76    68    71    1
    77    68    67    1
    78    54    56   ar
    79    54    57   ar
    80    34    36   ar
    81    56    58   ar
    82    35    37   ar
    83    57    59   ar
    84    58    60   ar
    85    36    37   ar
    86    59    60   ar
