@<TRIPOS>MOLECULE
tmp/2iq7E02.pdb
 76 74 0 0 0
SMALL
GASTEIGER

@<TRIPOS>ATOM
      1  N         45.6950    4.4360   41.2000 N.3   214  LYS214     -0.1245
      2  CA        44.6840    4.0850   40.2020 C.3   214  LYS214      0.1561
      3  C         45.1260    2.9150   39.3360 C.2   214  LYS214      0.2260
      4  O         46.2550    2.9080   38.8340 O.2   214  LYS214     -0.2867
      5  CB        44.3310    5.3010   39.3300 C.3   214  LYS214      0.0271
      6  CG        43.1280    5.0580   38.4050 C.3   214  LYS214      0.0035
      7  CD        42.7460    6.2650   37.5710 C.3   214  LYS214      0.0206
      8  CE        41.5000    5.9470   36.7170 C.3   214  LYS214      0.1093
      9  NZ        40.7290    7.1780   36.2880 N.3   214  LYS214     -0.1314
     10  N         41.5240    3.9280   43.5270 N.3   243  SER243     -0.1202
     11  CA        40.4920    3.4500   42.6080 C.3   243  SER243      0.2020
     12  C         40.9760    2.3890   41.6250 C.2   243  SER243      0.2619
     13  O         42.1300    2.4090   41.1940 O.2   243  SER243     -0.2717
     14  CB        39.8180    4.6150   41.8560 C.3   243  SER243      0.2103
     15  OG        40.7210    5.2780   41.0050 O.3   243  SER243     -0.2182
     16  N         40.0880    1.4670   41.2570 N.am  244  GLY244     -0.1956
     17  CA        40.4240    0.4530   40.2560 C.3   244  GLY244      0.1869
     18  C         41.4950   -0.4980   40.7610 C.2   244  GLY244      0.2309
     19  O         42.4860   -0.7750   40.0760 O.2   244  GLY244     -0.2863
     20  N         37.4420    3.2030   45.9150 N.3   282  THR282     -0.1203
     21  CA        36.3880    2.8750   44.9630 C.3   282  THR282      0.1994
     22  C         36.8690    1.8790   43.9240 C.2   282  THR282      0.2618
     23  O         38.0650    1.8000   43.6510 O.2   282  THR282     -0.2717
     24  CB        35.8230    4.1330   44.2520 C.3   282  THR282      0.1784
     25  OG1       36.8590    4.8110   43.5420 O.3   282  THR282     -0.2211
     26  CG2       35.1840    5.1040   45.2650 C.3   282  THR282      0.0376
     27  N         35.9330    1.1320   43.3400 N.am  283  GLY283     -0.1942
     28  CA        36.2760    0.1880   42.2820 C.3   283  GLY283      0.2014
     29  C         37.2460   -0.8470   42.8160 C.2   283  GLY283      0.2639
     30  O         38.2230   -1.2050   42.1630 O.2   283  GLY283     -0.2714
     31  N         36.9670   -1.3170   44.0250 N.am  284  LEU284     -0.1963
     32  CA        37.7820   -2.3460   44.6590 C.3   284  LEU284      0.1728
     33  C         37.1510   -3.7160   44.3980 C.2   284  LEU284      0.2616
     34  O         36.0040   -3.9620   44.7580 O.2   284  LEU284     -0.2715
     35  CB        37.9020   -2.0990   46.1660 C.3   284  LEU284      0.0311
     36  CG        38.6450   -3.1960   46.9460 C.3   284  LEU284      0.0022
     37  CD1       40.1380   -3.3090   46.5150 C.3   284  LEU284      0.0001
     38  CD2       38.5140   -2.9620   48.4520 C.3   284  LEU284      0.0001
     39  N         37.9270   -4.6030   43.7910 N.am  285  THR285     -0.1951
     40  CA        37.5030   -5.9700   43.5070 C.3   285  THR285      0.1897
     41  C         38.3910   -6.9520   44.2680 C.2   285  THR285      0.2313
     42  O         39.6140   -6.9140   44.1280 O.2   285  THR285     -0.2863
     43  CB        37.6220   -6.2500   41.9850 C.3   285  THR285      0.1794
     44  OG1       36.8150   -5.3080   41.2670 O.3   285  THR285     -0.2208
     45  CG2       37.2020   -7.6880   41.6310 C.3   285  THR285      0.0378
     46  N         31.3280    1.1340   45.2900 N.3   311  ASN311     -0.1225
     47  CA        31.6300    0.3230   44.1110 C.3   311  ASN311      0.1785
     48  C         32.7050   -0.7340   44.4050 C.2   311  ASN311      0.2597
     49  O         33.8310   -0.6820   43.8830 O.2   311  ASN311     -0.2718
     50  CB        32.0410    1.1880   42.9020 C.3   311  ASN311      0.1169
     51  CG        32.2670    0.3550   41.6630 C.2   311  ASN311      0.2627
     52  OD1       31.7150   -0.7380   41.5480 O.2   311  ASN311     -0.2716
     53  ND2       33.0920    0.8490   40.7370 N.am  311  ASN311     -0.0877
     54  N         32.3550   -1.6790   45.2640 N.am  312  TRP312     -0.1962
     55  CA        33.2260   -2.8080   45.5220 C.3   312  TRP312      0.1771
     56  C         32.5490   -4.0610   45.0100 C.2   312  TRP312      0.2619
     57  O         31.3120   -4.1250   44.9060 O.2   312  TRP312     -0.2715
     58  CB        33.4840   -2.9890   47.0140 C.3   312  TRP312      0.0590
     59  CG        34.3230   -1.9590   47.6960 C.ar  312  TRP312      0.0006
     60  CD1       34.6850   -0.7240   47.2260 C.ar  312  TRP312      0.0946
     61  CD2       34.8760   -2.0660   49.0090 C.ar  312  TRP312      0.0152
     62  NE1       35.4390   -0.0700   48.1620 N.ar  312  TRP312     -0.2442
     63  CE2       35.5770   -0.8680   49.2660 C.ar  312  TRP312      0.0810
     64  CE3       34.8500   -3.0630   49.9970 C.ar  312  TRP312      0.0012
     65  CZ2       36.2450   -0.6290   50.4760 C.ar  312  TRP312      0.0191
     66  CZ3       35.5260   -2.8330   51.2070 C.ar  312  TRP312      0.0001
     67  CH2       36.1990   -1.6190   51.4350 C.ar  312  TRP312      0.0015
     68  N         33.3740   -5.0610   44.7140 N.am  313  LYS313     -0.1977
     69  CA        32.8910   -6.3690   44.3340 C.3   313  LYS313      0.1596
     70  C         33.8090   -7.4260   44.9340 C.2   313  LYS313      0.2287
     71  O         34.9850   -7.5240   44.5630 O.2   313  LYS313     -0.2864
     72  CB        32.8530   -6.4870   42.8030 C.3   313  LYS313      0.0298
     73  CG        32.4120   -7.8440   42.2990 C.3   313  LYS313      0.0038
     74  CD        32.4610   -7.8930   40.7760 C.3   313  LYS313      0.0206
     75  CE        32.0280   -9.2530   40.2520 C.3   313  LYS313      0.1093
     76  NZ        30.6380   -9.6240   40.6450 N.3   313  LYS313     -0.1314
@<TRIPOS>BOND
     1     9     8    1
     2     8     7    1
     3     7     6    1
     4     6     5    1
     5     4     3    2
     6     5     2    1
     7     3     2    1
     8    19    18    2
     9     2     1    1
    10    75    76    1
    11    75    74    1
    12    17    18    1
    13    17    16    1
    14    53    51   am
    15    74    73    1
    16    15    14    1
    17    13    12    2
    18    16    12   am
    19    44    43    1
    20    52    51    2
    21    12    11    1
    22    45    43    1
    23    51    50    1
    24    14    11    1
    25    43    40    1
    26    30    29    2
    27    28    29    1
    28    28    27    1
    29    73    72    1
    30    11    10    1
    31    72    69    1
    32    29    31   am
    33    50    47    1
    34    27    22   am
    35    40    39    1
    36    40    41    1
    37    25    24    1
    38    23    22    2
    39    39    33   am
    40    49    48    2
    41    22    21    1
    42    31    32    1
    43    47    48    1
    44    47    46    1
    45    42    41    2
    46    24    21    1
    47    24    26    1
    48    69    68    1
    49    69    70    1
    50    33    32    1
    51    33    34    2
    52    48    54   am
    53    71    70    2
    54    32    35    1
    55    68    56   am
    56    57    56    2
    57    21    20    1
    58    56    55    1
    59    54    55    1
    60    55    58    1
    61    35    36    1
    62    37    36    1
    63    36    38    1
    64    58    59    1
    65    60    59   ar
    66    60    62   ar
    67    59    61   ar
    68    62    63   ar
    69    61    63   ar
    70    61    64   ar
    71    63    65   ar
    72    64    66   ar
    73    65    67   ar
    74    66    67   ar
