@<TRIPOS>MOLECULE
tmp/2iqdA01.pdb
 133 137 0 0 0
SMALL
GASTEIGER

@<TRIPOS>ATOM
      1  N         16.1520   24.1330   70.9540 N.3    20  TRP20      -0.1241
      2  CA        16.6280   23.4170   69.7770 C.3    20  TRP20       0.1605
      3  C         17.7500   22.4770   70.1900 C.2    20  TRP20       0.2264
      4  O         18.6510   22.8770   70.9210 O.2    20  TRP20      -0.2867
      5  CB        17.1200   24.4110   68.7270 C.3    20  TRP20       0.0550
      6  CG        17.7970   23.7720   67.5600 C.ar   20  TRP20       0.0003
      7  CD1       17.4200   22.6270   66.9120 C.ar   20  TRP20       0.0946
      8  CD2       18.9670   24.2520   66.8950 C.ar   20  TRP20       0.0152
      9  NE1       18.2830   22.3600   65.8850 N.ar   20  TRP20      -0.2442
     10  CE2       19.2460   23.3390   65.8510 C.ar   20  TRP20       0.0810
     11  CE3       19.8130   25.3530   67.0810 C.ar   20  TRP20       0.0012
     12  CZ2       20.3380   23.4930   65.0010 C.ar   20  TRP20       0.0191
     13  CZ3       20.9050   25.5060   66.2300 C.ar   20  TRP20       0.0001
     14  CH2       21.1560   24.5780   65.2050 C.ar   20  TRP20       0.0015
     15  N          9.6400   22.7340   64.3340 N.3    47  VAL47      -0.1231
     16  CA        10.7120   21.9810   63.6780 C.3    47  VAL47       0.1692
     17  C         11.7110   21.3360   64.6690 C.2    47  VAL47       0.2592
     18  O         12.4780   20.4440   64.3020 O.2    47  VAL47      -0.2718
     19  CB        11.4660   22.8820   62.6560 C.3    47  VAL47       0.0266
     20  CG1       12.3930   23.8460   63.3680 C.3    47  VAL47       0.0020
     21  CG2       12.2370   22.0250   61.6590 C.3    47  VAL47       0.0020
     22  N         11.6630   21.7400   65.9360 N.am   48  TYR48      -0.1976
     23  CA        12.5330   21.1480   66.9520 C.3    48  TYR48       0.1639
     24  C         12.0470   19.7740   67.4140 C.2    48  TYR48       0.2290
     25  O         12.7710   19.0600   68.1000 O.2    48  TYR48      -0.2864
     26  CB        12.6740   22.0750   68.1660 C.3    48  TYR48       0.0560
     27  CG        13.2330   23.4540   67.8610 C.ar   48  TYR48      -0.0198
     28  CD1       13.8610   23.7300   66.6330 C.ar   48  TYR48      -0.0009
     29  CD2       13.1340   24.4890   68.7980 C.ar   48  TYR48      -0.0009
     30  CE1       14.3670   24.9920   66.3500 C.ar   48  TYR48       0.0417
     31  CE2       13.6380   25.7600   68.5230 C.ar   48  TYR48       0.0417
     32  CZ        14.2500   26.0010   67.2970 C.ar   48  TYR48       0.1957
     33  OH        14.7250   27.2510   67.0050 O.3    48  TYR48      -0.2866
     34  N          7.0010   27.1270   60.5660 N.3    79  TRP79      -0.1241
     35  CA         8.0410   26.5430   59.7180 C.3    79  TRP79       0.1605
     36  C          7.7970   26.8380   58.2390 C.2    79  TRP79       0.2264
     37  O          6.7100   27.2700   57.8600 O.2    79  TRP79      -0.2867
     38  CB         8.1680   25.0310   59.9300 C.3    79  TRP79       0.0550
     39  CG         9.3400   24.4320   59.1700 C.ar   79  TRP79       0.0003
     40  CD1        9.2780   23.4580   58.2130 C.ar   79  TRP79       0.0946
     41  CD2       10.7140   24.8530   59.2300 C.ar   79  TRP79       0.0152
     42  NE1       10.5180   23.2520   57.6640 N.ar   79  TRP79      -0.2442
     43  CE2       11.4210   24.0870   58.2740 C.ar   79  TRP79       0.0810
     44  CE3       11.4110   25.7880   59.9970 C.ar   79  TRP79       0.0012
     45  CZ2       12.7970   24.2310   58.0670 C.ar   79  TRP79       0.0191
     46  CZ3       12.7930   25.9350   59.7890 C.ar   79  TRP79       0.0001
     47  CH2       13.4610   25.1570   58.8280 C.ar   79  TRP79       0.0015
     48  N          9.6610   31.6850   61.0470 N.3   110  HIS110     -0.1226
     49  CA        10.9620   31.0900   61.3670 C.3   110  HIS110      0.1752
     50  C         12.0670   31.5120   60.3940 C.2   110  HIS110      0.2596
     51  O         13.1550   31.8900   60.8230 O.2   110  HIS110     -0.2718
     52  CB        10.8340   29.5560   61.4020 C.3   110  HIS110      0.0759
     53  CG        11.8360   28.8710   62.2860 C.ar  110  HIS110      0.0818
     54  ND1       11.5480   27.7030   62.9590 N.ar  110  HIS110     -0.2268
     55  CD2       13.1360   29.1350   62.5350 C.ar  110  HIS110      0.1154
     56  CE1       12.6290   27.2750   63.5830 C.ar  110  HIS110      0.1986
     57  NE2       13.6080   28.1260   63.3400 N.ar  110  HIS110     -0.2212
     58  N         11.7850   31.4180   59.0950 N.am  111  TRP111     -0.1976
     59  CA        12.6930   31.8690   58.0400 C.3   111  TRP111      0.1640
     60  C         11.8430   32.5370   56.9540 C.2   111  TRP111      0.2290
     61  O         10.6710   32.2000   56.7930 O.2   111  TRP111     -0.2864
     62  CB        13.4400   30.6730   57.4470 C.3   111  TRP111      0.0576
     63  CG        14.4630   30.0900   58.3650 C.ar  111  TRP111      0.0006
     64  CD1       14.2480   29.1450   59.3250 C.ar  111  TRP111      0.0946
     65  CD2       15.8630   30.4040   58.4100 C.ar  111  TRP111      0.0152
     66  NE1       15.4240   28.8470   59.9710 N.ar  111  TRP111     -0.2442
     67  CE2       16.4330   29.6040   59.4270 C.ar  111  TRP111      0.0810
     68  CE3       16.6890   31.2690   57.6850 C.ar  111  TRP111      0.0012
     69  CZ2       17.8000   29.6450   59.7350 C.ar  111  TRP111      0.0191
     70  CZ3       18.0540   31.3090   57.9900 C.ar  111  TRP111      0.0001
     71  CH2       18.5890   30.5000   59.0050 C.ar  111  TRP111      0.0015
     72  N         10.3010   18.4090   56.3470 N.3   121  PHE121     -0.1227
     73  CA        10.6460   19.7760   56.7140 C.3   121  PHE121      0.1736
     74  C         11.4990   20.4480   55.6400 C.2   121  PHE121      0.2595
     75  O         11.3880   21.6450   55.4030 O.2   121  PHE121     -0.2718
     76  CB        11.3830   19.7750   58.0540 C.3   121  PHE121      0.0547
     77  CG        10.5270   19.3450   59.2280 C.ar  121  PHE121     -0.0202
     78  CD1        9.1450   19.5010   59.1940 C.ar  121  PHE121     -0.0042
     79  CD2       11.1210   18.8640   60.3880 C.ar  121  PHE121     -0.0042
     80  CE1        8.3760   19.1910   60.3040 C.ar  121  PHE121     -0.0003
     81  CE2       10.3600   18.5550   61.4980 C.ar  121  PHE121     -0.0003
     82  CZ         8.9900   18.7190   61.4570 C.ar  121  PHE121     -0.0000
     83  N         12.4020   19.6820   55.0380 N.am  122  PHE122     -0.1976
     84  CA        13.1650   20.1470   53.8860 C.3   122  PHE122      0.1639
     85  C         12.8840   19.2430   52.6860 C.2   122  PHE122      0.2290
     86  O         13.6460   18.3280   52.3960 O.2   122  PHE122     -0.2864
     87  CB        14.6620   20.1170   54.1790 C.3   122  PHE122      0.0560
     88  CG        15.1210   21.2060   55.0830 C.ar  122  PHE122     -0.0200
     89  CD1       15.6400   22.3810   54.5570 C.ar  122  PHE122     -0.0042
     90  CD2       15.1110   21.0290   56.4570 C.ar  122  PHE122     -0.0042
     91  CE1       16.1480   23.3590   55.3930 C.ar  122  PHE122     -0.0003
     92  CE2       15.6180   22.0040   57.2980 C.ar  122  PHE122     -0.0003
     93  CZ        16.1350   23.1700   56.7620 C.ar  122  PHE122     -0.0000
     94  N         19.9760   34.8360   69.1680 N.3   209  TYR209     -0.1241
     95  CA        20.0410   33.3850   69.3230 C.3   209  TYR209      0.1605
     96  C         21.4520   32.8820   69.0760 C.2   209  TYR209      0.2264
     97  O         22.3050   33.6290   68.6000 O.2   209  TYR209     -0.2867
     98  CB        18.9910   32.6740   68.4340 C.3   209  TYR209      0.0534
     99  CG        19.2760   32.5980   66.9400 C.ar  209  TYR209     -0.0201
    100  CD1       20.3380   31.8310   66.4460 C.ar  209  TYR209     -0.0009
    101  CD2       18.4080   33.1800   66.0140 C.ar  209  TYR209     -0.0009
    102  CE1       20.5330   31.6450   65.0880 C.ar  209  TYR209      0.0417
    103  CE2       18.5900   32.9920   64.6410 C.ar  209  TYR209      0.0417
    104  CZ        19.6540   32.2230   64.1860 C.ar  209  TYR209      0.1957
    105  OH        19.8180   31.9930   62.8370 O.3   209  TYR209     -0.2866
    106  N         26.3800   20.1270   62.6760 N.3   219  TRP219     -0.1241
    107  CA        27.3400   20.3700   61.6010 C.3   219  TRP219      0.1605
    108  C         28.6580   20.9820   62.0870 C.2   219  TRP219      0.2264
    109  O         29.3660   21.6320   61.3200 O.2   219  TRP219     -0.2867
    110  CB        26.7220   21.2730   60.5130 C.3   219  TRP219      0.0550
    111  CG        26.1550   22.6010   61.0020 C.ar  219  TRP219      0.0003
    112  CD1       26.8340   23.7850   61.1580 C.ar  219  TRP219      0.0946
    113  CD2       24.7870   22.8800   61.3020 C.ar  219  TRP219      0.0152
    114  NE1       25.9700   24.7850   61.5380 N.ar  219  TRP219     -0.2442
    115  CE2       24.7070   24.2560   61.6380 C.ar  219  TRP219      0.0810
    116  CE3       23.6210   22.1090   61.3120 C.ar  219  TRP219      0.0012
    117  CZ2       23.5010   24.8690   61.9820 C.ar  219  TRP219      0.0191
    118  CZ3       22.4200   22.7190   61.6500 C.ar  219  TRP219      0.0001
    119  CH2       22.3710   24.0870   61.9790 C.ar  219  TRP219      0.0015
    120  N         24.1570   29.5260   61.7560 N.3   298  CYS298     -0.1235
    121  CA        22.9460   29.1310   61.0590 C.3   298  CYS298      0.1677
    122  C         22.8630   29.8920   59.7450 C.2   298  CYS298      0.2270
    123  O         22.5180   31.0660   59.7080 O.2   298  CYS298     -0.2867
    124  CB        21.7110   29.4040   61.9270 C.3   298  CYS298      0.0956
    125  SG        21.3790   28.1530   63.1700 S.3   298  CYS298     -0.0801
    126  N         21.6020   28.3200   56.7520 N.3   300  LEU300     -0.1245
    127  CA        20.6400   27.6700   55.8610 C.3   300  LEU300      0.1561
    128  C         21.2230   27.4900   54.4570 C.2   300  LEU300      0.2260
    129  O         20.7650   28.1090   53.4960 O.2   300  LEU300     -0.2867
    130  CB        19.3650   28.5030   55.7850 C.3   300  LEU300      0.0270
    131  CG        18.0840   27.7400   55.4850 C.3   300  LEU300      0.0019
    132  CD1       17.7030   26.8930   56.6880 C.3   300  LEU300      0.0001
    133  CD2       16.9900   28.7280   55.1380 C.3   300  LEU300      0.0001
@<TRIPOS>BOND
     1    86    85    2
     2    85    84    1
     3   129   128    2
     4    84    87    1
     5    84    83    1
     6    87    88    1
     7   128   127    1
     8    89    88   ar
     9    89    91   ar
    10    83    74   am
    11    88    90   ar
    12   133   131    1
    13    91    93   ar
    14    75    74    2
    15   131   130    1
    16   131   132    1
    17    74    73    1
    18   130   127    1
    19   127   126    1
    20    72    73    1
    21    90    92   ar
    22    73    76    1
    23    93    92   ar
    24    61    60    2
    25    60    59    1
    26    62    59    1
    27    62    63    1
    28    42    40   ar
    29    42    43   ar
    30    68    70   ar
    31    68    65   ar
    32    37    36    2
    33    70    71   ar
    34    59    58    1
    35    76    77    1
    36    45    43   ar
    37    45    47   ar
    38    40    39   ar
    39    36    35    1
    40    43    41   ar
    41    63    65   ar
    42    63    64   ar
    43    65    67   ar
    44    47    46   ar
    45    71    69   ar
    46    58    50   am
    47    39    41   ar
    48    39    38    1
    49    78    77   ar
    50    78    80   ar
    51    77    79   ar
    52    41    44   ar
    53    64    66   ar
    54    67    69   ar
    55    67    66   ar
    56   123   122    2
    57    35    38    1
    58    35    34    1
    59   122   121    1
    60    46    44   ar
    61    80    82   ar
    62    79    81   ar
    63    50    51    2
    64    50    49    1
    65   110   111    1
    66   110   107    1
    67   111   112   ar
    68   111   113   ar
    69    48    49    1
    70   121   120    1
    71   121   124    1
    72   112   114   ar
    73   113   116   ar
    74   113   115   ar
    75   116   118   ar
    76   109   108    2
    77    49    52    1
    78    52    53    1
    79    82    81   ar
    80   114   115   ar
    81   107   108    1
    82   107   106    1
    83   115   117   ar
    84   118   119   ar
    85    21    19    1
    86   124   125    1
    87   119   117   ar
    88    53    55   ar
    89    53    54   ar
    90    55    57   ar
    91    19    20    1
    92    19    16    1
    93   105   104    1
    94    54    56   ar
    95    57    56   ar
    96    16    15    1
    97    16    17    1
    98   104   103   ar
    99   104   102   ar
   100    18    17    2
   101   103   101   ar
   102    17    22   am
   103    12    14   ar
   104    12    10   ar
   105   102   100   ar
   106    14    13   ar
   107    10     9   ar
   108    10     8   ar
   109     9     7   ar
   110    22    23    1
   111   101    99   ar
   112    13    11   ar
   113    30    28   ar
   114    30    32   ar
   115   100    99   ar
   116    28    27   ar
   117     8    11   ar
   118     8     6   ar
   119     7     6   ar
   120    99    98    1
   121    23    24    1
   122    23    26    1
   123    33    32    1
   124    32    31   ar
   125    24    25    2
   126     6     5    1
   127    27    26    1
   128    27    29   ar
   129    98    95    1
   130    31    29   ar
   131    97    96    2
   132     5     2    1
   133    96    95    1
   134    94    95    1
   135     2     3    1
   136     2     1    1
   137     3     4    2
