@<TRIPOS>MOLECULE
tmp/2irvB03.pdb
 100 97 0 0 0
SMALL
GASTEIGER

@<TRIPOS>ATOM
      1  N         34.7990   31.5310   25.0970 N.3     9  MET9       -0.1245
      2  CA        34.6630   30.3220   24.2960 C.3     9  MET9        0.1570
      3  C         34.7280   30.6220   22.8070 C.2     9  MET9        0.2261
      4  O         35.3760   29.9030   22.0390 O.2     9  MET9       -0.2867
      5  CB        33.3400   29.6300   24.5930 C.3     9  MET9        0.0387
      6  CG        33.4020   28.6970   25.7750 C.3     9  MET9        0.0595
      7  SD        32.2870   27.3430   25.4840 S.3     9  MET9       -0.1393
      8  CE        33.1130   26.5760   24.1060 C.3     9  MET9        0.0692
      9  N         37.6170   29.3690   20.1300 N.3    13  VAL13      -0.1245
     10  CA        37.3310   28.5870   18.9350 C.3    13  VAL13       0.1561
     11  C         37.7810   29.3520   17.6890 C.2    13  VAL13       0.2260
     12  O         38.3110   28.7670   16.7320 O.2    13  VAL13      -0.2867
     13  CB        35.8280   28.2430   18.8550 C.3    13  VAL13       0.0252
     14  CG1       35.5290   27.4560   17.5940 C.3    13  VAL13       0.0019
     15  CG2       35.4290   27.4140   20.0680 C.3    13  VAL13       0.0019
     16  N         41.5840   29.3040   17.4290 N.3    16  PHE16      -0.1227
     17  CA        41.9940   27.9640   17.0340 C.3    16  PHE16       0.1736
     18  C         41.8310   27.7250   15.5330 C.2    16  PHE16       0.2595
     19  O         42.6990   27.1370   14.8930 O.2    16  PHE16      -0.2718
     20  CB        41.1860   26.9140   17.7890 C.3    16  PHE16       0.0547
     21  CG        41.6490   25.5130   17.5330 C.ar   16  PHE16      -0.0202
     22  CD1       42.9320   25.1160   17.8990 C.ar   16  PHE16      -0.0042
     23  CD2       40.8220   24.5960   16.9010 C.ar   16  PHE16      -0.0042
     24  CE1       43.3850   23.8230   17.6360 C.ar   16  PHE16      -0.0003
     25  CE2       41.2700   23.2900   16.6320 C.ar   16  PHE16      -0.0003
     26  CZ        42.5500   22.9090   17.0000 C.ar   16  PHE16      -0.0000
     27  N         40.7010   28.1640   14.9890 N.am   17  ILE17      -0.1980
     28  CA        40.4070   28.0070   13.5720 C.3    17  ILE17       0.1595
     29  C         41.4220   28.7870   12.7340 C.2    17  ILE17       0.2287
     30  O         41.9070   28.3000   11.7120 O.2    17  ILE17      -0.2864
     31  CB        38.9610   28.4930   13.2630 C.3    17  ILE17       0.0276
     32  CG1       37.9520   27.5310   13.9010 C.3    17  ILE17       0.0022
     33  CG2       38.7290   28.5920   11.7580 C.3    17  ILE17       0.0022
     34  CD1       36.4970   27.9140   13.6770 C.3    17  ILE17       0.0001
     35  N         42.7850   19.6520   18.9930 N.3    56  LEU56      -0.1245
     36  CA        41.3590   19.5620   19.2470 C.3    56  LEU56       0.1561
     37  C         41.1030   19.1830   20.7010 C.2    56  LEU56       0.2260
     38  O         40.2040   19.7160   21.3430 O.2    56  LEU56      -0.2867
     39  CB        40.7290   18.5320   18.3130 C.3    56  LEU56       0.0270
     40  CG        40.4760   19.0180   16.8850 C.3    56  LEU56       0.0019
     41  CD1       40.1550   17.8470   15.9510 C.3    56  LEU56       0.0001
     42  CD2       39.3290   20.0060   16.9090 C.3    56  LEU56       0.0001
     43  N         42.0410   22.3100   23.2040 N.3    59  ILE59      -0.1231
     44  CA        40.9620   23.2710   23.3750 C.3    59  ILE59       0.1692
     45  C         39.6530   22.6450   23.8690 C.2    59  ILE59       0.2591
     46  O         38.8770   23.2960   24.5550 O.2    59  ILE59      -0.2718
     47  CB        40.6840   24.0200   22.0650 C.3    59  ILE59       0.0266
     48  CG1       39.6490   25.1240   22.3070 C.3    59  ILE59       0.0019
     49  CG2       40.1970   23.0390   21.0030 C.3    59  ILE59       0.0020
     50  CD1       39.3230   25.9580   21.0740 C.3    59  ILE59       0.0001
     51  N         39.4020   21.3880   23.5260 N.am   60  LEU60      -0.1980
     52  CA        38.1710   20.7370   23.9680 C.3    60  LEU60       0.1596
     53  C         38.0680   20.6710   25.4870 C.2    60  LEU60       0.2287
     54  O         37.1230   21.1830   26.0960 O.2    60  LEU60      -0.2864
     55  CB        38.0800   19.3110   23.4290 C.3    60  LEU60       0.0297
     56  CG        36.8720   18.5650   24.0070 C.3    60  LEU60       0.0022
     57  CD1       35.6350   19.0570   23.2790 C.3    60  LEU60       0.0001
     58  CD2       37.0140   17.0600   23.8640 C.3    60  LEU60       0.0001
     59  N         37.9720   24.0430   27.2760 N.3    63  LEU63      -0.1231
     60  CA        36.6770   24.6840   27.1560 C.3    63  LEU63       0.1693
     61  C         35.5880   24.0010   27.9830 C.2    63  LEU63       0.2591
     62  O         34.6780   24.6670   28.4780 O.2    63  LEU63      -0.2718
     63  CB        36.2600   24.7680   25.6840 C.3    63  LEU63       0.0284
     64  CG        37.0540   25.8010   24.8670 C.3    63  LEU63       0.0019
     65  CD1       36.4280   25.9610   23.5050 C.3    63  LEU63       0.0001
     66  CD2       37.0660   27.1500   25.5880 C.3    63  LEU63       0.0001
     67  N         35.6740   22.6810   28.1290 N.am   64  LEU64      -0.1980
     68  CA        34.7000   21.9510   28.9410 C.3    64  LEU64       0.1596
     69  C         34.7770   22.4970   30.3680 C.2    64  LEU64       0.2287
     70  O         33.7590   22.8110   30.9670 O.2    64  LEU64      -0.2864
     71  CB        35.0010   20.4440   28.9640 C.3    64  LEU64       0.0297
     72  CG        34.7320   19.6140   27.7060 C.3    64  LEU64       0.0022
     73  CD1       35.2900   18.2090   27.8820 C.3    64  LEU64       0.0001
     74  CD2       33.2450   19.5540   27.4460 C.3    64  LEU64       0.0001
     75  N         33.6130   26.2280   30.4820 N.3    67  TRP67      -0.1227
     76  CA        32.1690   26.3930   30.3890 C.3    67  TRP67       0.1737
     77  C         31.4450   26.1390   31.7120 C.2    67  TRP67       0.2595
     78  O         30.5390   26.8740   32.0860 O.2    67  TRP67      -0.2718
     79  CB        31.6160   25.4670   29.3020 C.3    67  TRP67       0.0564
     80  CG        30.1310   25.3540   29.2890 C.ar   67  TRP67       0.0003
     81  CD1       29.3760   24.4210   29.9400 C.ar   67  TRP67       0.0946
     82  CD2       29.2080   26.2430   28.6470 C.ar   67  TRP67       0.0152
     83  NE1       28.0420   24.6760   29.7470 N.ar   67  TRP67      -0.2442
     84  CE2       27.9080   25.7880   28.9580 C.ar   67  TRP67       0.0810
     85  CE3       29.3530   27.3810   27.8400 C.ar   67  TRP67       0.0012
     86  CZ2       26.7540   26.4330   28.4890 C.ar   67  TRP67       0.0191
     87  CZ3       28.2080   28.0230   27.3730 C.ar   67  TRP67       0.0001
     88  CH2       26.9240   27.5470   27.7000 C.ar   67  TRP67       0.0015
     89  N         31.8530   25.0970   32.4210 N.am   68  TYR68      -0.1976
     90  CA        31.2180   24.7570   33.6850 C.3    68  TYR68       0.1639
     91  C         31.7330   25.5540   34.8760 C.2    68  TYR68       0.2290
     92  O         30.9420   26.0570   35.6740 O.2    68  TYR68      -0.2864
     93  CB        31.3640   23.2560   33.9440 C.3    68  TYR68       0.0560
     94  CG        30.4760   22.4290   33.0420 C.ar   68  TYR68      -0.0198
     95  CD1       29.0850   22.4590   33.1840 C.ar   68  TYR68      -0.0009
     96  CD2       31.0120   21.6630   32.0090 C.ar   68  TYR68      -0.0009
     97  CE1       28.2570   21.7560   32.3250 C.ar   68  TYR68       0.0417
     98  CE2       30.1910   20.9590   31.1420 C.ar   68  TYR68       0.0417
     99  CZ        28.8160   21.0100   31.3080 C.ar   68  TYR68       0.1957
    100  OH        28.0040   20.3020   30.4560 O.3    68  TYR68      -0.2866
@<TRIPOS>BOND
     1    30    29    2
     2    33    31    1
     3    29    28    1
     4    31    28    1
     5    31    32    1
     6    28    27    1
     7    34    32    1
     8    19    18    2
     9    27    18   am
    10    18    17    1
    11    41    40    1
    12    25    23   ar
    13    25    26   ar
    14    12    11    2
    15    40    42    1
    16    40    39    1
    17    23    21   ar
    18    26    24   ar
    19    17    16    1
    20    17    20    1
    21    21    20    1
    22    21    22   ar
    23    14    13    1
    24    24    22   ar
    25    11    10    1
    26    39    36    1
    27    13    10    1
    28    13    15    1
    29    10     9    1
    30    35    36    1
    31    36    37    1
    32    37    38    2
    33    49    47    1
    34    50    48    1
    35     4     3    2
    36    47    48    1
    37    47    44    1
    38     3     2    1
    39    43    44    1
    40    57    56    1
    41    44    45    1
    42    55    52    1
    43    55    56    1
    44    65    64    1
    45    51    45   am
    46    51    52    1
    47    58    56    1
    48    45    46    2
    49    52    53    1
    50     8     7    1
    51     2     5    1
    52     2     1    1
    53     5     6    1
    54    64    66    1
    55    64    63    1
    56     7     6    1
    57    53    54    2
    58    63    60    1
    59    60    59    1
    60    60    61    1
    61    87    88   ar
    62    87    85   ar
    63    74    72    1
    64    88    86   ar
    65    72    73    1
    66    72    71    1
    67    85    82   ar
    68    61    67   am
    69    61    62    2
    70    67    68    1
    71    86    84   ar
    72    82    84   ar
    73    82    80   ar
    74    68    71    1
    75    68    69    1
    76    84    83   ar
    77    80    79    1
    78    80    81   ar
    79    79    76    1
    80    83    81   ar
    81    69    70    2
    82    76    75    1
    83    76    77    1
    84   100    99    1
    85    98    99   ar
    86    98    96   ar
    87    99    97   ar
    88    77    78    2
    89    77    89   am
    90    96    94   ar
    91    97    95   ar
    92    89    90    1
    93    94    95   ar
    94    94    93    1
    95    90    93    1
    96    90    91    1
    97    91    92    2
