@<TRIPOS>MOLECULE
tmp/2irvB07.pdb
 141 139 0 0 0
SMALL
GASTEIGER

@<TRIPOS>ATOM
      1  N         46.7780   24.1570   20.8500 N.3    54  PHE54      -0.1227
      2  CA        47.4490   23.4290   19.7940 C.3    54  PHE54       0.1736
      3  C         46.9010   22.0910   19.3380 C.2    54  PHE54       0.2596
      4  O         47.5960   21.3480   18.6480 O.2    54  PHE54      -0.2718
      5  CB        48.9140   23.3130   20.1720 C.3    54  PHE54       0.0547
      6  CG        49.4990   24.6110   20.6280 C.ar   54  PHE54      -0.0202
      7  CD1       49.4480   24.9750   21.9720 C.ar   54  PHE54      -0.0042
      8  CD2       50.0260   25.5110   19.7070 C.ar   54  PHE54      -0.0042
      9  CE1       49.9090   26.2230   22.3980 C.ar   54  PHE54      -0.0003
     10  CE2       50.4900   26.7610   20.1150 C.ar   54  PHE54      -0.0003
     11  CZ        50.4290   27.1190   21.4670 C.ar   54  PHE54      -0.0000
     12  N         45.6620   21.7830   19.7100 N.am   55  SER55      -0.1952
     13  CA        45.0280   20.5370   19.2770 C.3    55  SER55       0.1924
     14  C         43.5410   20.5450   19.6220 C.2    55  SER55       0.2314
     15  O         43.0830   21.3630   20.4260 O.2    55  SER55      -0.2863
     16  CB        45.7180   19.3070   19.8990 C.3    55  SER55       0.2116
     17  OG        45.6240   19.2850   21.3140 O.3    55  SER55      -0.2180
     18  N         43.2090   19.6760   23.1250 N.3    58  HIS58      -0.1241
     19  CA        43.7420   20.7470   23.9490 C.3    58  HIS58       0.1621
     20  C         42.6150   21.7290   24.2510 C.2    58  HIS58       0.2264
     21  O         42.2710   21.9500   25.4060 O.2    58  HIS58      -0.2867
     22  CB        44.8880   21.4630   23.2150 C.3    58  HIS58       0.0745
     23  CG        45.5560   22.5400   24.0200 C.ar   58  HIS58       0.0817
     24  ND1       46.4550   23.4300   23.4710 N.ar   58  HIS58      -0.2268
     25  CD2       45.4560   22.8720   25.3310 C.ar   58  HIS58       0.1154
     26  CE1       46.8780   24.2650   24.4060 C.ar   58  HIS58       0.1986
     27  NE2       46.2870   23.9480   25.5430 N.ar   58  HIS58      -0.2212
     28  N         39.0460   20.0160   26.0920 N.3    61  PHE61      -0.1227
     29  CA        39.0550   19.8600   27.5280 C.3    61  PHE61       0.1736
     30  C         39.1880   21.1680   28.2860 C.2    61  PHE61       0.2595
     31  O         38.6250   21.3030   29.3710 O.2    61  PHE61      -0.2718
     32  CB        40.1380   18.8550   27.9290 C.3    61  PHE61       0.0547
     33  CG        39.8330   17.4530   27.4770 C.ar   61  PHE61      -0.0202
     34  CD1       40.7530   16.7250   26.7290 C.ar   61  PHE61      -0.0042
     35  CD2       38.5860   16.8840   27.7450 C.ar   61  PHE61      -0.0042
     36  CE1       40.4340   15.4510   26.2440 C.ar   61  PHE61      -0.0003
     37  CE2       38.2600   15.6140   27.2650 C.ar   61  PHE61      -0.0003
     38  CZ        39.1870   14.8980   26.5110 C.ar   61  PHE61      -0.0000
     39  N         39.9120   22.1340   27.7260 N.am   62  ASN62      -0.1974
     40  CA        40.0420   23.4250   28.3940 C.3    62  ASN62       0.1688
     41  C         38.6930   24.1430   28.3890 C.2    62  ASN62       0.2292
     42  O         38.3100   24.7630   29.3850 O.2    62  ASN62      -0.2864
     43  CB        41.1020   24.3000   27.7090 C.3    62  ASN62       0.1181
     44  CG        42.5020   24.0160   28.2190 C.2    62  ASN62       0.2629
     45  OD1       42.6890   23.1420   29.0480 O.2    62  ASN62      -0.2716
     46  ND2       43.4930   24.7610   27.7240 N.am   62  ASN62      -0.0877
     47  N         35.9950   22.6030   30.8930 N.3    65  TRP65      -0.1241
     48  CA        36.2310   23.1190   32.2350 C.3    65  TRP65       0.1605
     49  C         35.8320   24.5890   32.3240 C.2    65  TRP65       0.2264
     50  O         35.2300   25.0250   33.3040 O.2    65  TRP65      -0.2867
     51  CB        37.7090   23.0040   32.6080 C.3    65  TRP65       0.0550
     52  CG        38.2040   21.6420   32.9940 C.ar   65  TRP65       0.0003
     53  CD1       39.1100   20.8810   32.3110 C.ar   65  TRP65       0.0946
     54  CD2       37.9350   20.9360   34.2180 C.ar   65  TRP65       0.0152
     55  NE1       39.4350   19.7590   33.0340 N.ar   65  TRP65      -0.2442
     56  CE2       38.7300   19.7640   34.2070 C.ar   65  TRP65       0.0810
     57  CE3       37.1090   21.1810   35.3210 C.ar   65  TRP65       0.0012
     58  CZ2       38.7210   18.8370   35.2630 C.ar   65  TRP65       0.0191
     59  CZ3       37.1020   20.2600   36.3720 C.ar   65  TRP65       0.0001
     60  CH2       37.9030   19.1060   36.3340 C.ar   65  TRP65       0.0015
     61  N         51.1020   28.6730   24.9050 N.3   106  GLY106     -0.1210
     62  CA        49.7350   29.1670   24.8880 C.3   106  GLY106      0.1956
     63  C         48.7560   28.2080   25.5420 C.2   106  GLY106      0.2612
     64  O         49.1280   27.0870   25.8960 O.2   106  GLY106     -0.2717
     65  N         47.5070   28.6520   25.6950 N.am  107  GLY107     -0.1956
     66  CA        46.4790   27.8300   26.3130 C.3   107  GLY107      0.1869
     67  C         45.9680   28.4390   27.6100 C.2   107  GLY107      0.2309
     68  O         46.6590   29.2530   28.2210 O.2   107  GLY107     -0.2863
     69  N         45.5970   27.0080   30.4230 N.3   109  SER109     -0.1217
     70  CA        46.5310   26.5500   31.4380 C.3   109  SER109      0.1889
     71  C         46.1200   26.9190   32.8610 C.2   109  SER109      0.2288
     72  O         45.1580   26.3740   33.3980 O.2   109  SER109     -0.2866
     73  CB        47.9260   27.1170   31.1170 C.3   109  SER109      0.2089
     74  OG        48.9280   26.5160   31.9110 O.3   109  SER109     -0.2183
     75  N         42.3920   27.5650   34.0210 N.3   112  VAL112     -0.1231
     76  CA        41.5930   26.4040   34.3790 C.3   112  VAL112      0.1692
     77  C         41.8270   25.9960   35.8330 C.2   112  VAL112      0.2592
     78  O         40.8770   25.7760   36.5760 O.2   112  VAL112     -0.2718
     79  CB        41.9110   25.2190   33.4480 C.3   112  VAL112      0.0266
     80  CG1       41.6490   23.8970   34.1490 C.3   112  VAL112      0.0020
     81  CG2       41.0580   25.3290   32.1920 C.3   112  VAL112      0.0020
     82  N         43.0880   25.9060   36.2410 N.am  113  TYR113     -0.1976
     83  CA        43.3940   25.5240   37.6110 C.3   113  TYR113      0.1639
     84  C         42.9290   26.5380   38.6560 C.2   113  TYR113      0.2290
     85  O         42.5590   26.1520   39.7660 O.2   113  TYR113     -0.2864
     86  CB        44.8810   25.2740   37.7720 C.3   113  TYR113      0.0560
     87  CG        45.3290   24.0340   37.0640 C.ar  113  TYR113     -0.0198
     88  CD1       45.4090   23.9960   35.6750 C.ar  113  TYR113     -0.0009
     89  CD2       45.6470   22.8850   37.7760 C.ar  113  TYR113     -0.0009
     90  CE1       45.7950   22.8470   35.0170 C.ar  113  TYR113      0.0417
     91  CE2       46.0320   21.7280   37.1260 C.ar  113  TYR113      0.0417
     92  CZ        46.1060   21.7160   35.7430 C.ar  113  TYR113      0.1957
     93  OH        46.5090   20.5750   35.0910 O.3   113  TYR113     -0.2866
     94  N         41.4930   16.1710   40.4810 N.3   140  PHE140     -0.1241
     95  CA        42.0400   16.2660   39.1320 C.3   140  PHE140      0.1605
     96  C         43.3010   17.1300   39.1350 C.2   140  PHE140      0.2264
     97  O         44.2970   16.7870   38.5100 O.2   140  PHE140     -0.2867
     98  CB        41.0240   16.9180   38.1900 C.3   140  PHE140      0.0534
     99  CG        41.5880   17.2740   36.8390 C.ar  140  PHE140     -0.0203
    100  CD1       41.6630   16.3240   35.8230 C.ar  140  PHE140     -0.0042
    101  CD2       42.0550   18.5620   36.5800 C.ar  140  PHE140     -0.0042
    102  CE1       42.1890   16.6480   34.5750 C.ar  140  PHE140     -0.0003
    103  CE2       42.5850   18.8910   35.3280 C.ar  140  PHE140     -0.0003
    104  CZ        42.6500   17.9330   34.3290 C.ar  140  PHE140     -0.0000
    105  N         47.0030   15.8640   38.3330 N.3   144  TRP144     -0.1241
    106  CA        47.6360   16.5220   37.2030 C.3   144  TRP144      0.1605
    107  C         48.9570   17.1750   37.5410 C.2   144  TRP144      0.2264
    108  O         49.8520   17.2440   36.6990 O.2   144  TRP144     -0.2867
    109  CB        46.6910   17.5470   36.5800 C.3   144  TRP144      0.0550
    110  CG        46.1820   17.0910   35.2750 C.ar  144  TRP144      0.0003
    111  CD1       46.3710   17.6940   34.0730 C.ar  144  TRP144      0.0946
    112  CD2       45.4400   15.8940   35.0130 C.ar  144  TRP144      0.0152
    113  NE1       45.7960   16.9510   33.0670 N.ar  144  TRP144     -0.2442
    114  CE2       45.2180   15.8380   33.6170 C.ar  144  TRP144      0.0810
    115  CE3       44.9430   14.8610   35.8220 C.ar  144  TRP144      0.0012
    116  CZ2       44.5210   14.7930   33.0090 C.ar  144  TRP144      0.0191
    117  CZ3       44.2450   13.8150   35.2150 C.ar  144  TRP144      0.0001
    118  CH2       44.0410   13.7920   33.8180 C.ar  144  TRP144      0.0015
    119  N         54.3920   16.4800   30.9060 N.3   155  MET155     -0.1245
    120  CA        53.5920   17.4930   31.6060 C.3   155  MET155      0.1570
    121  C         54.4010   18.4280   32.5150 C.2   155  MET155      0.2261
    122  O         53.8560   19.3530   33.1210 O.2   155  MET155     -0.2867
    123  CB        52.4940   16.8100   32.4370 C.3   155  MET155      0.0387
    124  CG        51.4700   16.0230   31.6170 C.3   155  MET155      0.0595
    125  SD        50.1550   15.2580   32.6200 S.3   155  MET155     -0.1393
    126  CE        50.8950   13.6920   33.0340 C.3   155  MET155      0.0692
    127  N         54.7710   22.6080   31.5600 N.3   158  ALA158     -0.1245
    128  CA        53.7140   23.5500   31.9280 C.3   158  ALA158      0.1562
    129  C         53.1420   23.3700   33.3320 C.2   158  ALA158      0.2260
    130  O         52.1650   24.0300   33.6920 O.2   158  ALA158     -0.2867
    131  CB        52.5830   23.4800   30.9060 C.3   158  ALA158      0.0290
    132  N         50.5900   25.7640   36.0880 N.3   162  HIS162     -0.1241
    133  CA        49.3630   25.1570   36.5840 C.3   162  HIS162      0.1621
    134  C         49.2880   25.3490   38.0960 C.2   162  HIS162      0.2264
    135  O         48.2300   25.6740   38.6550 O.2   162  HIS162     -0.2867
    136  CB        49.3530   23.6730   36.2410 C.3   162  HIS162      0.0745
    137  CG        49.2390   23.4000   34.7760 C.ar  162  HIS162      0.0817
    138  ND1       49.3080   22.1310   34.2470 N.ar  162  HIS162     -0.2268
    139  CD2       49.0390   24.2330   33.7290 C.ar  162  HIS162      0.1154
    140  CE1       49.1540   22.1920   32.9380 C.ar  162  HIS162      0.1986
    141  NE2       48.9890   23.4560   32.5980 N.ar  162  HIS162     -0.2212
@<TRIPOS>BOND
     1     4     3    2
     2    13    14    1
     3    13    12    1
     4    13    16    1
     5     3    12   am
     6     3     2    1
     7    14    15    2
     8     8    10   ar
     9     8     6   ar
    10     2     5    1
    11     2     1    1
    12    16    17    1
    13    10    11   ar
    14     5     6    1
    15     6     7   ar
    16    11     9   ar
    17     7     9   ar
    18    18    19    1
    19    22    19    1
    20    22    23    1
    21    24    23   ar
    22    24    26   ar
    23    19    20    1
    24    23    25   ar
    25    20    21    2
    26    26    27   ar
    27    62    61    1
    28    62    63    1
    29    25    27   ar
    30    63    65   am
    31    63    64    2
    32    65    66    1
    33    28    29    1
    34    36    38   ar
    35    36    34   ar
    36    66    67    1
    37    38    37   ar
    38    34    33   ar
    39    37    35   ar
    40    33    35   ar
    41    33    32    1
    42    29    32    1
    43    29    30    1
    44    67    68    2
    45    43    44    1
    46    43    40    1
    47    46    44   am
    48    39    30   am
    49    39    40    1
    50    44    45    2
    51    30    31    2
    52    41    40    1
    53    41    42    2
    54    69    70    1
    55    47    48    1
    56   131   128    1
    57   119   120    1
    58    73    70    1
    59    73    74    1
    60    70    71    1
    61   127   128    1
    62   120   123    1
    63   120   121    1
    64   124   123    1
    65   124   125    1
    66   128   129    1
    67    81    79    1
    68    48    49    1
    69    48    51    1
    70    53    52   ar
    71    53    55   ar
    72    49    50    2
    73   121   122    2
    74   141   140   ar
    75   141   139   ar
    76    51    52    1
    77   125   126    1
    78    71    72    2
    79   140   138   ar
    80    52    54   ar
    81   116   114   ar
    82   116   118   ar
    83    55    56   ar
    84   113   114   ar
    85   113   111   ar
    86   129   130    2
    87    79    80    1
    88    79    76    1
    89   114   112   ar
    90   139   137   ar
    91   118   117   ar
    92    75    76    1
    93   111   110   ar
    94    56    54   ar
    95    56    58   ar
    96    54    57   ar
    97   138   137   ar
    98   104   102   ar
    99   104   103   ar
   100    76    77    1
   101   102   100   ar
   102   137   136    1
   103   112   110   ar
   104   112   115   ar
   105    90    88   ar
   106    90    92   ar
   107    93    92    1
   108   117   115   ar
   109    58    60   ar
   110   110   109    1
   111    57    59   ar
   112   103   101   ar
   113    88    87   ar
   114    92    91   ar
   115   100    99   ar
   116    77    82   am
   117    77    78    2
   118   132   133    1
   119   136   133    1
   120    82    83    1
   121    60    59   ar
   122   109   106    1
   123   101    99   ar
   124   133   134    1
   125   108   107    2
   126    99    98    1
   127    87    86    1
   128    87    89   ar
   129    91    89   ar
   130   106   107    1
   131   106   105    1
   132    83    86    1
   133    83    84    1
   134   134   135    2
   135    98    95    1
   136    97    96    2
   137    84    85    2
   138    95    96    1
   139    95    94    1
