@<TRIPOS>MOLECULE
tmp/2irvB06.pdb
 116 110 0 0 0
SMALL
GASTEIGER

@<TRIPOS>ATOM
      1  N         49.7750   35.6000   35.7520 N.3    92  LEU92      -0.1245
      2  CA        50.7060   34.8360   36.5500 C.3    92  LEU92       0.1561
      3  C         51.0960   33.5270   35.8750 C.2    92  LEU92       0.2260
      4  O         52.2500   33.1000   35.9440 O.2    92  LEU92      -0.2867
      5  CB        50.1110   34.5560   37.9340 C.3    92  LEU92       0.0270
      6  CG        51.1320   33.9970   38.9210 C.3    92  LEU92       0.0019
      7  CD1       52.3310   34.9190   38.9740 C.3    92  LEU92       0.0001
      8  CD2       50.5140   33.8620   40.2890 C.3    92  LEU92       0.0001
      9  N         55.0860   32.5870   34.9430 N.3    96  VAL96      -0.1231
     10  CA        55.8600   31.4380   35.3740 C.3    96  VAL96       0.1692
     11  C         56.3220   30.6480   34.1610 C.2    96  VAL96       0.2591
     12  O         57.4550   30.1830   34.1150 O.2    96  VAL96      -0.2718
     13  CB        55.0300   30.5220   36.2920 C.3    96  VAL96       0.0266
     14  CG1       55.8140   29.2580   36.6220 C.3    96  VAL96       0.0020
     15  CG2       54.6650   31.2730   37.5620 C.3    96  VAL96       0.0020
     16  N         55.4460   30.5040   33.1750 N.am   97  GLN97      -0.1979
     17  CA        55.8030   29.7660   31.9710 C.3    97  GLN97       0.1601
     18  C         57.0370   30.3930   31.3140 C.2    97  GLN97       0.2287
     19  O         58.0920   29.7670   31.2310 O.2    97  GLN97      -0.2864
     20  CB        54.6300   29.7480   30.9800 C.3    97  GLN97       0.0394
     21  CG        54.7660   28.7100   29.8610 C.3    97  GLN97       0.0908
     22  CD        54.8680   27.2830   30.3940 C.2    97  GLN97       0.2608
     23  OE1       53.9230   26.7570   30.9850 O.2    97  GLN97      -0.2717
     24  NE2       56.0200   26.6560   30.1940 N.am   97  GLN97      -0.0878
     25  N         60.4800   29.8450   32.5950 N.3   100  PHE100     -0.1227
     26  CA        61.0660   28.5130   32.5090 C.3   100  PHE100      0.1736
     27  C         61.3100   28.0080   31.0830 C.2   100  PHE100      0.2596
     28  O         62.2780   27.2940   30.8490 O.2   100  PHE100     -0.2718
     29  CB        60.2170   27.4900   33.2800 C.3   100  PHE100      0.0547
     30  CG        60.5010   27.4630   34.7650 C.ar  100  PHE100     -0.0202
     31  CD1       59.7240   28.2030   35.6580 C.ar  100  PHE100     -0.0042
     32  CD2       61.5750   26.7160   35.2680 C.ar  100  PHE100     -0.0042
     33  CE1       60.0070   28.2010   37.0310 C.ar  100  PHE100     -0.0003
     34  CE2       61.8690   26.7070   36.6300 C.ar  100  PHE100     -0.0003
     35  CZ        61.0850   27.4490   37.5160 C.ar  100  PHE100     -0.0000
     36  N         60.4680   28.3770   30.1250 N.am  101  SER101     -0.1952
     37  CA        60.6610   27.8820   28.7650 C.3   101  SER101      0.1924
     38  C         60.6120   28.9290   27.6630 C.2   101  SER101      0.2314
     39  O         60.5490   28.5810   26.4820 O.2   101  SER101     -0.2863
     40  CB        59.6220   26.8080   28.4540 C.3   101  SER101      0.2116
     41  OG        58.3120   27.3590   28.4770 O.3   101  SER101     -0.2180
     42  N         55.1740   16.5990   38.0650 N.3   149  TRP149     -0.1241
     43  CA        56.4730   16.4770   38.7170 C.3   149  TRP149      0.1605
     44  C         57.2760   15.2850   38.1950 C.2   149  TRP149      0.2264
     45  O         58.5080   15.3340   38.1280 O.2   149  TRP149     -0.2867
     46  CB        56.3010   16.3780   40.2370 C.3   149  TRP149      0.0550
     47  CG        55.9660   17.7030   40.8770 C.ar  149  TRP149      0.0003
     48  CD1       56.4740   18.9280   40.5340 C.ar  149  TRP149      0.0946
     49  CD2       55.1010   17.9290   42.0030 C.ar  149  TRP149      0.0152
     50  NE1       55.9830   19.8970   41.3740 N.ar  149  TRP149     -0.2442
     51  CE2       55.1400   19.3150   42.2860 C.ar  149  TRP149      0.0810
     52  CE3       54.3000   17.0970   42.8000 C.ar  149  TRP149      0.0012
     53  CZ2       54.4080   19.8920   43.3390 C.ar  149  TRP149      0.0191
     54  CZ3       53.5700   17.6710   43.8490 C.ar  149  TRP149      0.0001
     55  CH2       53.6320   19.0570   44.1060 C.ar  149  TRP149      0.0015
     56  N         55.7010   18.1840   32.5990 N.3   156  SER156     -0.1202
     57  CA        56.5910   18.9730   33.4360 C.3   156  SER156      0.2020
     58  C         56.8270   20.4060   32.9490 C.2   156  SER156      0.2618
     59  O         56.9930   21.3240   33.7520 O.2   156  SER156     -0.2717
     60  CB        57.9250   18.2430   33.5550 C.3   156  SER156      0.2103
     61  OG        58.7830   18.8970   34.4580 O.3   156  SER156     -0.2182
     62  N         56.8460   20.6010   31.6380 N.am  157  MET157     -0.1979
     63  CA        57.0750   21.9260   31.0770 C.3   157  MET157      0.1605
     64  C         56.0460   22.9830   31.5080 C.2   157  MET157      0.2287
     65  O         56.4110   24.1200   31.7940 O.2   157  MET157     -0.2864
     66  CB        57.1170   21.8540   29.5460 C.3   157  MET157      0.0413
     67  CG        57.4790   23.1830   28.8840 C.3   157  MET157      0.0598
     68  SD        57.6080   23.0910   27.0770 S.3   157  MET157     -0.1393
     69  CE        56.4250   24.4020   26.5570 C.3   157  MET157      0.0692
     70  N         53.7570   22.5010   34.1250 N.3   159  ASN159     -0.1225
     71  CA        53.2740   22.2390   35.4760 C.3   159  ASN159      0.1785
     72  C         53.4150   23.4520   36.4030 C.2   159  ASN159      0.2598
     73  O         52.5140   23.7550   37.1850 O.2   159  ASN159     -0.2718
     74  CB        54.0020   21.0260   36.0540 C.3   159  ASN159      0.1169
     75  CG        53.2640   20.4020   37.2330 C.2   159  ASN159      0.2627
     76  OD1       52.0300   20.3770   37.2670 O.2   159  ASN159     -0.2716
     77  ND2       54.0160   19.8740   38.1920 N.am  159  ASN159     -0.0877
     78  N         54.5380   24.1520   36.3070 N.am  160  GLY160     -0.1942
     79  CA        54.7380   25.3200   37.1400 C.3   160  GLY160      0.2014
     80  C         53.6330   26.3560   37.0090 C.2   160  GLY160      0.2638
     81  O         53.2020   26.9410   38.0010 O.2   160  GLY160     -0.2714
     82  N         53.1750   26.5830   35.7800 N.am  161  ALA161     -0.1977
     83  CA        52.1210   27.5570   35.5080 C.3   161  ALA161      0.1597
     84  C         50.7620   27.0820   36.0340 C.2   161  ALA161      0.2287
     85  O         49.8910   27.8950   36.3720 O.2   161  ALA161     -0.2864
     86  CB        52.0420   27.8340   34.0070 C.3   161  ALA161      0.0319
     87  N         50.4250   25.1550   38.7510 N.3   163  ILE163     -0.1231
     88  CA        50.4950   25.3250   40.1880 C.3   163  ILE163      0.1692
     89  C         50.1750   26.7700   40.5490 C.2   163  ILE163      0.2591
     90  O         49.2780   27.0220   41.3500 O.2   163  ILE163     -0.2718
     91  CB        51.8820   24.9730   40.7240 C.3   163  ILE163      0.0266
     92  CG1       52.2010   23.5030   40.4100 C.3   163  ILE163      0.0019
     93  CG2       51.9250   25.2140   42.2110 C.3   163  ILE163      0.0020
     94  CD1       53.5620   23.0320   40.8980 C.3   163  ILE163      0.0001
     95  N         50.9010   27.7090   39.9420 N.am  164  ALA164     -0.1980
     96  CA        50.6980   29.1310   40.2050 C.3   164  ALA164      0.1597
     97  C         49.2420   29.5050   39.9950 C.2   164  ALA164      0.2287
     98  O         48.6770   30.2730   40.7690 O.2   164  ALA164     -0.2864
     99  CB        51.5890   29.9750   39.2950 C.3   164  ALA164      0.0319
    100  N         47.1900   28.2840   42.8730 N.3   167  ALA167     -0.1231
    101  CA        47.4590   29.0960   44.0540 C.3   167  ALA167      0.1694
    102  C         46.6490   30.3920   44.0320 C.2   167  ALA167      0.2591
    103  O         46.0260   30.7610   45.0300 O.2   167  ALA167     -0.2718
    104  CB        48.9390   29.4020   44.1370 C.3   167  ALA167      0.0304
    105  N         46.6750   31.0790   42.8940 N.am  168  VAL168     -0.1980
    106  CA        45.9300   32.3120   42.7020 C.3   168  VAL168      0.1595
    107  C         44.4460   32.0530   42.9820 C.2   168  VAL168      0.2287
    108  O         43.8150   32.7730   43.7500 O.2   168  VAL168     -0.2864
    109  CB        46.0650   32.8210   41.2540 C.3   168  VAL168      0.0276
    110  CG1       45.3210   34.1410   41.0870 C.3   168  VAL168      0.0022
    111  CG2       47.5170   33.0180   40.9120 C.3   168  VAL168      0.0022
    112  N         43.8880   31.5280   46.7140 N.3   171  ALA171     -0.1245
    113  CA        44.0600   32.7530   47.4850 C.3   171  ALA171      0.1562
    114  C         42.8380   33.6600   47.3770 C.2   171  ALA171      0.2260
    115  O         42.3230   34.1380   48.3840 O.2   171  ALA171     -0.2867
    116  CB        45.2890   33.4940   47.0130 C.3   171  ALA171      0.0290
@<TRIPOS>BOND
     1    39    38    2
     2    69    68    1
     3    68    67    1
     4    38    37    1
     5    40    41    1
     6    40    37    1
     7    37    36    1
     8    67    66    1
     9    66    63    1
    10    21    22    1
    11    21    20    1
    12    36    27   am
    13    24    22   am
    14    22    23    2
    15    28    27    2
    16    20    17    1
    17    63    64    1
    18    63    62    1
    19    27    26    1
    20    19    18    2
    21    18    17    1
    22    64    65    2
    23    62    58   am
    24    17    16    1
    25    26    25    1
    26    26    29    1
    27    56    57    1
    28    58    57    1
    29    58    59    2
    30    16    11   am
    31    29    30    1
    32    57    60    1
    33    60    61    1
    34    86    83    1
    35    12    11    2
    36    70    71    1
    37    11    10    1
    38    30    32   ar
    39    30    31   ar
    40     9    10    1
    41    32    34   ar
    42    10    13    1
    43    71    74    1
    44    71    72    1
    45    83    82    1
    46    83    84    1
    47    31    33   ar
    48     1     2    1
    49    82    80   am
    50     3     4    2
    51     3     2    1
    52    84    85    2
    53    74    75    1
    54    13    14    1
    55    13    15    1
    56    78    72   am
    57    78    79    1
    58    72    73    2
    59     2     5    1
    60    34    35   ar
    61    80    79    1
    62    80    81    2
    63    33    35   ar
    64    75    76    2
    65    75    77   am
    66     5     6    1
    67    42    43    1
    68    45    44    2
    69    44    43    1
    70    43    46    1
    71    87    88    1
    72     6     7    1
    73     6     8    1
    74    99    96    1
    75    95    96    1
    76    95    89   am
    77    97    96    1
    78    97    98    2
    79    88    89    1
    80    88    91    1
    81    46    47    1
    82    92    91    1
    83    92    94    1
    84    48    47   ar
    85    48    50   ar
    86    89    90    2
    87    91    93    1
    88    47    49   ar
    89   111   109    1
    90   110   109    1
    91   109   106    1
    92    50    51   ar
    93    49    51   ar
    94    49    52   ar
    95    51    53   ar
    96   106   105    1
    97   106   107    1
    98    52    54   ar
    99   100   101    1
   100   105   102   am
   101   107   108    2
   102    53    55   ar
   103    54    55   ar
   104   102   101    1
   105   102   103    2
   106   101   104    1
   107   112   113    1
   108   116   113    1
   109   114   113    1
   110   114   115    2
