@<TRIPOS>MOLECULE
tmp/2irwH01.pdb
 169 162 0 0 0
SMALL
GASTEIGER

@<TRIPOS>ATOM
      1  N         43.5870   64.8070  406.8860 N.3    96  ILE96      -0.1231
      2  CA        45.0150   64.4950  407.0420 C.3    96  ILE96       0.1692
      3  C         45.1620   63.2380  407.8780 C.2    96  ILE96       0.2593
      4  O         44.3110   62.9470  408.7170 O.2    96  ILE96      -0.2718
      5  CB        45.8130   65.6230  407.7440 C.3    96  ILE96       0.0266
      6  CG1       45.1570   66.0270  409.0730 C.3    96  ILE96       0.0019
      7  CG2       45.9600   66.8310  406.8260 C.3    96  ILE96       0.0020
      8  CD1       46.1030   66.6760  410.0590 C.3    96  ILE96       0.0001
      9  N         46.2430   62.5020  407.6560 N.am   97  THR97      -0.1939
     10  CA        46.5400   61.2880  408.4180 C.3    97  THR97       0.2028
     11  C         46.9370   61.6350  409.8730 C.2    97  THR97       0.2642
     12  O         47.3660   62.7640  410.1520 O.2    97  THR97      -0.2714
     13  CB        47.6470   60.4620  407.7010 C.3    97  THR97       0.1808
     14  OG1       47.8690   59.2160  408.3720 O.3    97  THR97      -0.2208
     15  CG2       48.9580   61.2420  407.6410 C.3    97  THR97       0.0379
     16  N         46.7750   60.6780  410.7930 N.am   98  ASN98      -0.1957
     17  CA        47.1960   60.8750  412.1980 C.3    98  ASN98       0.1819
     18  C         48.6560   61.3320  412.2550 C.2    98  ASN98       0.2621
     19  O         49.5160   60.7710  411.5730 O.2    98  ASN98      -0.2715
     20  CB        46.9660   59.6140  413.0890 C.3    98  ASN98       0.1195
     21  CG        45.5130   59.0510  413.0050 C.2    98  ASN98       0.2630
     22  OD1       44.5910   59.7150  412.4970 O.2    98  ASN98      -0.2716
     23  ND2       45.3200   57.8160  413.5050 N.am   98  ASN98      -0.0877
     24  N         48.9120   62.3670  413.0480 N.am   99  THR99      -0.1951
     25  CA        50.2470   62.9540  413.1800 C.3    99  THR99       0.1897
     26  C         50.4040   63.7180  414.5020 C.2    99  THR99       0.2313
     27  O         49.5030   64.4530  414.9170 O.2    99  THR99      -0.2863
     28  CB        50.5850   63.8930  411.9780 C.3    99  THR99       0.1794
     29  OG1       51.7230   64.7040  412.2910 O.3    99  THR99      -0.2208
     30  CG2       49.4140   64.8100  411.6360 C.3    99  THR99       0.0378
     31  N         53.6700   65.7450  417.2210 N.3   101  LEU101     -0.1245
     32  CA        54.9260   66.4950  417.1090 C.3   101  LEU101      0.1561
     33  C         56.0750   65.6720  417.6410 C.2   101  LEU101      0.2260
     34  O         56.0910   65.3300  418.8110 O.2   101  LEU101     -0.2867
     35  CB        54.8840   67.8200  417.8750 C.3   101  LEU101      0.0270
     36  CG        53.7480   68.8350  417.7560 C.3   101  LEU101      0.0019
     37  CD1       54.1990   70.1080  418.4170 C.3   101  LEU101      0.0001
     38  CD2       53.3470   69.1190  416.3310 C.3   101  LEU101      0.0001
     39  N         48.3180   74.7030  405.8800 N.3   145  SER145     -0.1202
     40  CA        48.7380   75.1980  407.1780 C.3   145  SER145      0.2020
     41  C         49.7160   76.3420  407.0110 C.2   145  SER145      0.2619
     42  O         50.2160   76.5820  405.9200 O.2   145  SER145     -0.2717
     43  CB        49.4030   74.0580  407.9580 C.3   145  SER145      0.2103
     44  OG        50.1980   74.5270  409.0290 O.3   145  SER145     -0.2182
     45  N         49.9950   77.0450  408.1010 N.am  146  LEU146     -0.1965
     46  CA        51.1370   77.9420  408.1390 C.3   146  LEU146      0.1728
     47  C         52.3900   77.1590  407.7950 C.2   146  LEU146      0.2616
     48  O         53.2960   77.7040  407.1730 O.2   146  LEU146     -0.2715
     49  CB        51.2830   78.5930  409.5160 C.3   146  LEU146      0.0311
     50  CG        50.3620   79.7850  409.7710 C.3   146  LEU146      0.0022
     51  CD1       50.6470   80.3790  411.1380 C.3   146  LEU146      0.0001
     52  CD2       50.5270   80.8470  408.6820 C.3   146  LEU146      0.0001
     53  N         52.4180   75.8770  408.1840 N.am  147  ALA147     -0.1977
     54  CA        53.5300   74.9640  407.8860 C.3   147  ALA147      0.1597
     55  C         53.6000   74.5750  406.4070 C.2   147  ALA147      0.2287
     56  O         54.4580   73.7860  406.0100 O.2   147  ALA147     -0.2864
     57  CB        53.4530   73.7210  408.7540 C.3   147  ALA147      0.0319
     58  N         58.4440   74.7660  410.0090 N.3   152  TYR152     -0.1228
     59  CA        58.3110   74.5270  411.4370 C.3   152  TYR152      0.1721
     60  C         59.1050   73.2640  411.7840 C.2   152  TYR152      0.2437
     61  O         59.1660   72.3460  410.9770 O.2   152  TYR152     -0.2733
     62  CB        56.8380   74.3100  411.8030 C.3   152  TYR152      0.0547
     63  CG        55.9950   75.5590  411.9810 C.ar  152  TYR152     -0.0200
     64  CD1       55.1660   76.0270  410.9610 C.ar  152  TYR152     -0.0009
     65  CD2       56.0090   76.2520  413.1800 C.ar  152  TYR152     -0.0009
     66  CE1       54.3740   77.1650  411.1340 C.ar  152  TYR152      0.0417
     67  CE2       55.2400   77.3880  413.3620 C.ar  152  TYR152      0.0417
     68  CZ        54.4210   77.8460  412.3420 C.ar  152  TYR152      0.1957
     69  OH        53.6700   78.9890  412.5640 O.3   152  TYR152     -0.2866
     70  N         59.7340   73.2160  412.9750 N.am  153  PRO153     -0.2718
     71  CA        60.2980   71.9370  413.4290 C.3   153  PRO153      0.1535
     72  C         59.2420   70.9970  414.0180 C.2   153  PRO153      0.2598
     73  O         58.1610   71.4370  414.3850 O.2   153  PRO153     -0.2715
     74  CB        61.2950   72.3580  414.5050 C.3   153  PRO153      0.0310
     75  CG        60.7660   73.6260  415.0320 C.3   153  PRO153      0.0237
     76  CD        59.9960   74.3050  413.9370 C.3   153  PRO153      0.0939
     77  N         59.5650   69.7100  414.0870 N.am  154  MET154     -0.1964
     78  CA        58.7050   68.6770  414.6890 C.3   154  MET154      0.1736
     79  C         57.4840   68.2770  413.8560 C.2   154  MET154      0.2616
     80  O         56.7300   67.3610  414.2280 O.2   154  MET154     -0.2715
     81  CB        58.2970   69.0520  416.1090 C.3   154  MET154      0.0427
     82  CG        59.4530   69.1040  417.0910 C.3   154  MET154      0.0599
     83  SD        58.8950   69.7930  418.6640 S.3   154  MET154     -0.1393
     84  CE        57.9680   68.3910  419.2890 C.3   154  MET154      0.0692
     85  N         57.3030   68.9500  412.7240 N.am  155  VAL155     -0.1977
     86  CA        56.2730   68.5680  411.7650 C.3   155  VAL155      0.1596
     87  C         56.8250   68.3940  410.3410 C.2   155  VAL155      0.2287
     88  O         56.1570   68.7340  409.3620 O.2   155  VAL155     -0.2864
     89  CB        55.0820   69.5510  411.7900 C.3   155  VAL155      0.0276
     90  CG1       54.2280   69.3060  413.0230 C.3   155  VAL155      0.0022
     91  CG2       55.5610   71.0000  411.7210 C.3   155  VAL155      0.0022
     92  N         54.6600   66.3170  407.7920 N.3   158  TYR158     -0.1241
     93  CA        53.4160   67.0710  407.5940 C.3   158  TYR158      0.1605
     94  C         53.6390   68.2950  406.6970 C.2   158  TYR158      0.2264
     95  O         52.8960   68.5190  405.7360 O.2   158  TYR158     -0.2867
     96  CB        52.8340   67.4600  408.9600 C.3   158  TYR158      0.0534
     97  CG        51.6830   68.4450  408.9600 C.ar  158  TYR158     -0.0201
     98  CD1       50.3660   68.0210  408.7780 C.ar  158  TYR158     -0.0009
     99  CD2       51.9120   69.8010  409.1900 C.ar  158  TYR158     -0.0009
    100  CE1       49.3090   68.9330  408.8030 C.ar  158  TYR158      0.0417
    101  CE2       50.8700   70.7240  409.2060 C.ar  158  TYR158      0.0417
    102  CZ        49.5740   70.2860  409.0190 C.ar  158  TYR158      0.1957
    103  OH        48.5530   71.2120  409.0530 O.3   158  TYR158     -0.2866
    104  N         46.2400   78.0320  407.3580 N.3   190  LEU190     -0.1231
    105  CA        45.7350   78.1850  408.7180 C.3   190  LEU190      0.1693
    106  C         46.8430   78.2540  409.7630 C.2   190  LEU190      0.2593
    107  O         47.8490   77.5520  409.6630 O.2   190  LEU190     -0.2718
    108  CB        44.7610   77.0580  409.0670 C.3   190  LEU190      0.0284
    109  CG        43.6060   76.7570  408.1100 C.3   190  LEU190      0.0019
    110  CD1       42.7820   75.6080  408.6500 C.3   190  LEU190      0.0001
    111  CD2       42.7250   77.9670  407.8390 C.3   190  LEU190      0.0001
    112  N         46.6570   79.1080  410.7640 N.am  191  GLY191     -0.1942
    113  CA        47.4960   79.0760  411.9520 C.3   191  GLY191      0.2014
    114  C         46.9640   78.0460  412.9290 C.2   191  GLY191      0.2638
    115  O         46.1370   77.2090  412.5560 O.2   191  GLY191     -0.2714
    116  N         47.4150   78.1010  414.1840 N.am  192  LEU192     -0.1977
    117  CA        46.9060   77.1610  415.1870 C.3   192  LEU192      0.1596
    118  C         45.4110   77.3520  415.4270 C.2   192  LEU192      0.2287
    119  O         44.9440   78.4720  415.6690 O.2   192  LEU192     -0.2864
    120  CB        47.6860   77.2230  416.5030 C.3   192  LEU192      0.0297
    121  CG        47.4580   76.0180  417.4420 C.3   192  LEU192      0.0022
    122  CD1       47.7030   74.6840  416.7350 C.3   192  LEU192      0.0001
    123  CD2       48.3020   76.1120  418.7170 C.3   192  LEU192      0.0001
    124  N         41.0410   72.9870  417.7070 N.3   195  THR195     -0.1218
    125  CA        40.4300   71.6530  417.6700 C.3   195  THR195      0.1862
    126  C         41.0430   70.7850  418.7660 C.2   195  THR195      0.2287
    127  O         42.1060   71.1010  419.2940 O.2   195  THR195     -0.2866
    128  CB        40.6420   70.9590  416.3210 C.3   195  THR195      0.1770
    129  OG1       42.0350   70.9840  415.9950 O.3   195  THR195     -0.2211
    130  CG2       39.8760   71.6680  415.2390 C.3   195  THR195      0.0375
    131  N         42.2560   67.5860  418.5810 N.3   197  THR197     -0.1203
    132  CA        43.4640   66.9510  418.0240 C.3   197  THR197      0.1994
    133  C         44.6740   67.8890  418.0600 C.2   197  THR197      0.2617
    134  O         45.7910   67.4570  418.3790 O.2   197  THR197     -0.2717
    135  CB        43.2320   66.4720  416.5680 C.3   197  THR197      0.1784
    136  OG1       41.9920   65.7560  416.4870 O.3   197  THR197     -0.2211
    137  CG2       44.3660   65.5660  416.0940 C.3   197  THR197      0.0376
    138  N         44.4370   69.1610  417.7420 N.am  198  ALA198     -0.1979
    139  CA        45.4810   70.1700  417.7790 C.3   198  ALA198      0.1597
    140  C         45.9540   70.4280  419.2080 C.2   198  ALA198      0.2287
    141  O         47.1240   70.1970  419.5340 O.2   198  ALA198     -0.2864
    142  CB        45.0020   71.4490  417.1370 C.3   198  ALA198      0.0319
    143  N         47.8970   67.7480  420.6780 N.3   201  ALA201     -0.1231
    144  CA        49.1900   67.5250  420.0540 C.3   201  ALA201      0.1694
    145  C         50.2280   68.5760  420.4230 C.2   201  ALA201      0.2591
    146  O         51.4150   68.2690  420.4820 O.2   201  ALA201     -0.2718
    147  CB        49.0370   67.4480  418.5620 C.3   201  ALA201      0.0304
    148  N         49.7910   69.8090  420.6620 N.am  202  VAL202     -0.1980
    149  CA        50.7330   70.8940  420.9620 C.3   202  VAL202      0.1595
    150  C         50.9900   71.0920  422.4620 C.2   202  VAL202      0.2287
    151  O         51.9770   71.7390  422.8490 O.2   202  VAL202     -0.2864
    152  CB        50.3140   72.2420  420.3210 C.3   202  VAL202      0.0276
    153  CG1       50.3710   72.1420  418.8190 C.3   202  VAL202      0.0022
    154  CG2       48.9330   72.6600  420.7700 C.3   202  VAL202      0.0022
    155  N         54.3120   71.3760  424.4410 N.3   205  ILE205     -0.1231
    156  CA        55.3640   71.6820  423.4640 C.3   205  ILE205      0.1692
    157  C         55.2140   73.1150  422.9790 C.2   205  ILE205      0.2591
    158  O         56.0540   73.9740  423.2690 O.2   205  ILE205     -0.2718
    159  CB        55.3770   70.7200  422.2330 C.3   205  ILE205      0.0266
    160  CG1       55.5030   69.2490  422.6550 C.3   205  ILE205      0.0019
    161  CG2       56.5210   71.0870  421.2900 C.3   205  ILE205      0.0020
    162  CD1       54.1960   68.4810  422.6470 C.3   205  ILE205      0.0001
    163  N         54.1400   73.3630  422.2340 N.am  206  VAL206     -0.1980
    164  CA        53.8310   74.7080  421.7670 C.3   206  VAL206      0.1595
    165  C         53.0340   75.3970  422.8630 C.2   206  VAL206      0.2287
    166  O         52.6040   74.7570  423.8380 O.2   206  VAL206     -0.2864
    167  CB        53.0230   74.7040  420.4400 C.3   206  VAL206      0.0276
    168  CG1       53.0090   76.0940  419.8060 C.3   206  VAL206      0.0022
    169  CG2       53.6120   73.7110  419.4660 C.3   206  VAL206      0.0022
@<TRIPOS>BOND
     1    95    94    2
     2    39    40    1
     3    42    41    2
     4    56    55    2
     5    55    54    1
     6    94    93    1
     7     7     5    1
     8     1     2    1
     9    41    40    1
    10    41    45   am
    11     2     5    1
    12     2     3    1
    13    48    47    2
    14    40    43    1
    15   104   105    1
    16    93    92    1
    17    93    96    1
    18    15    13    1
    19     9     3   am
    20     9    10    1
    21    13    14    1
    22    13    10    1
    23     5     6    1
    24    47    46    1
    25    47    53   am
    26   111   109    1
    27     3     4    2
    28    54    53    1
    29    54    57    1
    30    43    44    1
    31    45    46    1
    32   109   110    1
    33   109   108    1
    34    46    49    1
    35    10    11    1
    36    52    50    1
    37   105   108    1
    38   105   106    1
    39    98   100   ar
    40    98    97   ar
    41   100   102   ar
    42    97    96    1
    43    97    99   ar
    44   102   103    1
    45   102   101   ar
    46     6     8    1
    47    99   101   ar
    48    88    87    2
    49    49    50    1
    50   107   106    2
    51   106   112   am
    52    50    51    1
    53    11    12    2
    54    11    16   am
    55    58    59    1
    56    87    86    1
    57   112   113    1
    58    16    17    1
    59    64    66   ar
    60    64    63   ar
    61    61    60    2
    62    66    68   ar
    63    59    60    1
    64    59    62    1
    65    19    18    2
    66    30    28    1
    67    91    89    1
    68    86    89    1
    69    86    85    1
    70    60    70   am
    71    89    90    1
    72    62    63    1
    73   113   114    1
    74    28    29    1
    75    28    25    1
    76    63    65   ar
    77    17    18    1
    78    17    20    1
    79    18    24   am
    80    68    69    1
    81    68    67   ar
    82    22    21    2
    83   115   114    2
    84    85    79   am
    85   114   116   am
    86    70    71    1
    87    70    76    1
    88    21    20    1
    89    21    23   am
    90    24    25    1
    91    25    26    1
    92    65    67   ar
    93    71    72    1
    94    71    74    1
    95    79    80    2
    96    79    78    1
    97    76    75    1
    98    72    77   am
    99    72    73    2
   100    77    78    1
   101   116   117    1
   102    26    27    2
   103    74    75    1
   104    78    81    1
   105   117   118    1
   106   117   120    1
   107   130   128    1
   108   118   119    2
   109   129   128    1
   110   137   135    1
   111    81    82    1
   112   128   125    1
   113    38    36    1
   114   136   135    1
   115   120   121    1
   116   135   132    1
   117   122   121    1
   118    82    83    1
   119    32    31    1
   120    32    33    1
   121    32    35    1
   122   142   139    1
   123   121   123    1
   124    33    34    2
   125   125   124    1
   126   125   126    1
   127   138   139    1
   128   138   133   am
   129    36    35    1
   130    36    37    1
   131   139   140    1
   132   132   133    1
   133   132   131    1
   134   133   134    2
   135   147   144    1
   136    83    84    1
   137   126   127    2
   138   153   152    1
   139   140   141    2
   140   169   167    1
   141   168   167    1
   142   144   145    1
   143   144   143    1
   144   152   154    1
   145   152   149    1
   146   145   146    2
   147   145   148   am
   148   167   164    1
   149   148   149    1
   150   149   150    1
   151   161   159    1
   152   164   163    1
   153   164   165    1
   154   159   160    1
   155   159   156    1
   156   163   157   am
   157   150   151    2
   158   162   160    1
   159   165   166    2
   160   157   158    2
   161   157   156    1
   162   156   155    1
