@<TRIPOS>MOLECULE
tmp/2iryB00.pdb
 109 101 0 0 0
SMALL
GASTEIGER

@<TRIPOS>ATOM
      1  N        -32.3100  -15.5870   19.8300 N.3    59  PHE59      -0.1241
      2  CA       -31.7370  -14.6350   20.8060 C.3    59  PHE59       0.1605
      3  C        -32.0180  -15.1030   22.2190 C.2    59  PHE59       0.2264
      4  O        -33.0930  -15.6690   22.5250 O.2    59  PHE59      -0.2867
      5  CB       -32.3050  -13.2260   20.6320 C.3    59  PHE59       0.0534
      6  CG       -31.6570  -12.4260   19.5170 C.ar   59  PHE59      -0.0203
      7  CD1      -30.4300  -11.7880   19.7130 C.ar   59  PHE59      -0.0042
      8  CD2      -32.2830  -12.3090   18.2760 C.ar   59  PHE59      -0.0042
      9  CE1      -29.8460  -11.0390   18.7040 C.ar   59  PHE59      -0.0003
     10  CE2      -31.7000  -11.5610   17.2450 C.ar   59  PHE59      -0.0003
     11  CZ       -30.4750  -10.9160   17.4660 C.ar   59  PHE59      -0.0000
     12  N        -22.5750  -15.3420   18.7750 N.3   104  GLU104     -0.1245
     13  CA       -22.5390  -13.8750   18.7430 C.3   104  GLU104      0.1567
     14  C        -22.8410  -13.2200   20.0990 C.2   104  GLU104      0.2260
     15  O        -23.7860  -13.6060   20.7890 O.2   104  GLU104     -0.2867
     16  CB       -23.5200  -13.3340   17.6900 C.3   104  GLU104      0.0388
     17  CG       -23.2010  -13.7420   16.2710 C.3   104  GLU104      0.1160
     18  CD       -24.1040  -13.0600   15.2510 C.2   104  GLU104      0.3649
     19  OE1      -25.0730  -12.3470   15.6510 O.co2 104  GLU104     -0.2457
     20  OE2      -23.8730  -13.2360   14.0330 O.co2 104  GLU104     -0.2457
     21  N        -23.6540   -9.3740   21.5470 N.3   106  HIS106     -0.1241
     22  CA       -24.1120   -8.0460   21.1270 C.3   106  HIS106      0.1621
     23  C        -24.1590   -7.1480   22.3850 C.2   106  HIS106      0.2264
     24  O        -24.6260   -7.5870   23.4580 O.2   106  HIS106     -0.2867
     25  CB       -25.4940   -8.1000   20.4650 C.3   106  HIS106      0.0745
     26  CG       -25.5670   -8.9670   19.2330 C.ar  106  HIS106      0.0817
     27  ND1      -25.8880   -8.4670   17.9910 N.ar  106  HIS106     -0.2268
     28  CD2      -25.3880  -10.3020   19.0630 C.ar  106  HIS106      0.1154
     29  CE1      -25.9030   -9.4530   17.1070 C.ar  106  HIS106      0.1986
     30  NE2      -25.6140  -10.5780   17.7320 N.ar  106  HIS106     -0.2212
     31  N        -23.1530    1.8390   11.8250 N.3   132  ASP132     -0.1239
     32  CA       -23.2320    0.6200   11.0560 C.3   132  ASP132      0.1674
     33  C        -23.3520    1.0290    9.5990 C.2   132  ASP132      0.2266
     34  O        -24.3640    1.5830    9.1970 O.2   132  ASP132     -0.2867
     35  CB       -24.4360   -0.2060   11.5090 C.3   132  ASP132      0.1410
     36  CG       -24.5820   -1.5090   10.7590 C.2   132  ASP132      0.3668
     37  OD1      -23.8100   -1.7840    9.8190 O.co2 132  ASP132     -0.2456
     38  OD2      -25.5100   -2.2690   11.1060 O.co2 132  ASP132     -0.2456
     39  N        -24.0220   -0.1640    6.2140 N.3   134  ASP134     -0.1239
     40  CA       -24.5960   -1.3530    5.6150 C.3   134  ASP134      0.1674
     41  C        -24.7360   -1.1530    4.1030 C.2   134  ASP134      0.2266
     42  O        -25.4560   -0.2380    3.6580 O.2   134  ASP134     -0.2867
     43  CB       -25.9480   -1.6930    6.2420 C.3   134  ASP134      0.1410
     44  CG       -26.4670   -3.0250    5.7590 C.2   134  ASP134      0.3668
     45  OD1      -25.8160   -4.0500    6.0140 O.co2 134  ASP134     -0.2456
     46  OD2      -27.5000   -3.0520    5.0830 O.co2 134  ASP134     -0.2456
     47  N        -17.5910   -6.0420    9.8950 N.3   167  SER167     -0.1217
     48  CA       -18.5500   -6.6710   10.8120 C.3   167  SER167      0.1889
     49  C        -18.5320   -8.2070   10.8420 C.2   167  SER167      0.2288
     50  O        -19.0930   -8.8220   11.7620 O.2   167  SER167     -0.2866
     51  CB       -19.9750   -6.1940   10.5160 C.3   167  SER167      0.2089
     52  OG       -20.4050   -6.8220    9.3430 O.3   167  SER167     -0.2183
     53  N        -19.9820   -9.7730    8.5100 N.3   169  SER169     -0.1202
     54  CA       -21.1740  -10.0580    7.7480 C.3   169  SER169      0.2020
     55  C        -20.9650   -9.3870    6.3890 C.2   169  SER169      0.2619
     56  O        -20.0610   -9.7990    5.6400 O.2   169  SER169     -0.2717
     57  CB       -22.3970   -9.5760    8.5320 C.3   169  SER169      0.2103
     58  OG       -23.5750  -10.2780    8.1970 O.3   169  SER169     -0.2182
     59  N        -21.7580   -8.3690    6.0630 N.am  170  LYS170     -0.1965
     60  CA       -21.6060   -7.6690    4.7850 C.3   170  LYS170      0.1728
     61  C        -20.9040   -6.3190    4.9000 C.2   170  LYS170      0.2616
     62  O        -20.1830   -5.9110    3.9750 O.2   170  LYS170     -0.2715
     63  CB       -22.9610   -7.4910    4.0810 C.3   170  LYS170      0.0311
     64  CG       -23.3520   -8.6690    3.2200 C.3   170  LYS170      0.0038
     65  CD       -24.5860   -8.3650    2.3730 C.3   170  LYS170      0.0206
     66  CE       -25.2270   -9.6670    1.9130 C.3   170  LYS170      0.1093
     67  NZ       -26.4200   -9.4780    1.0410 N.3   170  LYS170     -0.1314
     68  N        -21.1110   -5.6370    6.0230 N.am  171  GLY171     -0.1955
     69  CA       -20.6740   -4.2520    6.1680 C.3   171  GLY171      0.1869
     70  C        -19.5330   -3.9670    7.1330 C.2   171  GLY171      0.2309
     71  O        -18.6790   -4.8150    7.4130 O.2   171  GLY171     -0.2863
     72  N        -18.4630   -1.5720   10.6450 N.3   173  HIS173     -0.1241
     73  CA       -18.7940   -0.7020   11.7720 C.3   173  HIS173      0.1621
     74  C        -17.6800    0.2740   12.0600 C.2   173  HIS173      0.2264
     75  O        -16.4960   -0.0640   11.9290 O.2   173  HIS173     -0.2867
     76  CB       -19.1540   -1.5130   13.0320 C.3   173  HIS173      0.0745
     77  CG       -20.3240   -2.4240   12.8180 C.ar  173  HIS173      0.0817
     78  ND1      -20.4630   -3.6360   13.4490 N.ar  173  HIS173     -0.2268
     79  CD2      -21.3950   -2.3050   11.9980 C.ar  173  HIS173      0.1154
     80  CE1      -21.5820   -4.2140   13.0550 C.ar  173  HIS173      0.1986
     81  NE2      -22.1750   -3.4210   12.1850 N.ar  173  HIS173     -0.2212
     82  N        -28.2730    2.7910   16.0090 N.3   225  GLN225     -0.1245
     83  CA       -27.7900    1.8100   17.0000 C.3   225  GLN225      0.1566
     84  C        -27.1800    2.4510   18.2430 C.2   225  GLN225      0.2260
     85  O        -26.8240    1.7730   19.2070 O.2   225  GLN225     -0.2867
     86  CB       -26.8510    0.8070   16.3270 C.3   225  GLN225      0.0367
     87  CG       -27.6590   -0.2160   15.4880 C.3   225  GLN225      0.0905
     88  CD       -26.8180   -1.1230   14.6210 C.2   225  GLN225      0.2608
     89  OE1      -27.0190   -1.1950   13.3970 O.2   225  GLN225     -0.2717
     90  NE2      -25.9190   -1.8550   15.2350 N.am  225  GLN225     -0.0878
     91  N        -23.2350   -5.9790   17.3550 N.3   233  ILE233     -0.1245
     92  CA       -22.2320   -7.0480   17.4520 C.3   233  ILE233      0.1561
     93  C        -20.9100   -6.5330   18.1120 C.2   233  ILE233      0.2260
     94  O        -20.3670   -5.4810   17.7200 O.2   233  ILE233     -0.2867
     95  CB       -21.9940   -7.7390   16.0980 C.3   233  ILE233      0.0252
     96  CG1      -21.1840   -9.0300   16.2990 C.3   233  ILE233      0.0019
     97  CG2      -21.2930   -6.7690   15.0960 C.3   233  ILE233      0.0019
     98  CD1      -21.9640  -10.1520   17.0010 C.3   233  ILE233      0.0001
     99  N        -19.3360  -14.4830   14.0950 N.3   239  ARG239     -0.1245
    100  CA       -20.6450  -14.3460   13.4350 C.3   239  ARG239      0.1563
    101  C        -21.2620  -15.7280   13.1260 C.2   239  ARG239      0.2260
    102  O        -20.5580  -16.6490   12.7130 O.2   239  ARG239     -0.2867
    103  CB       -20.5180  -13.5470   12.1220 C.3   239  ARG239      0.0307
    104  CG       -19.9030  -12.1350   12.2200 C.3   239  ARG239      0.0489
    105  CD       -20.5410  -11.3290   13.3480 C.3   239  ARG239      0.2205
    106  NE       -21.9910  -11.2320   13.2130 N.pl3 239  ARG239     -0.0865
    107  CZ       -22.6310  -10.2030   12.6710 C.cat 239  ARG239      0.5346
    108  NH1      -21.9660   -9.1310   12.2150 N.pl3 239  ARG239      0.1354
    109  NH2      -23.9590  -10.2260   12.5820 N.pl3 239  ARG239      0.1354
@<TRIPOS>BOND
     1    67    66    1
     2    66    65    1
     3    65    64    1
     4    64    63    1
     5    42    41    2
     6    62    61    2
     7    63    60    1
     8    41    40    1
     9    60    61    1
    10    60    59    1
    11    61    68   am
    12    46    44   ar
    13    40    39    1
    14    40    43    1
    15    56    55    2
    16    44    45   ar
    17    44    43    1
    18    68    69    1
    19    59    55   am
    20    69    70    1
    21    55    54    1
    22    70    71    2
    23    54    53    1
    24    54    57    1
    25    58    57    1
    26    34    33    2
    27    52    51    1
    28    33    32    1
    29    37    36   ar
    30    47    48    1
    31    51    48    1
    32    72    73    1
    33    36    38   ar
    34    36    35    1
    35    48    49    1
    36    49    50    2
    37    32    35    1
    38    32    31    1
    39    73    74    1
    40    73    76    1
    41    75    74    2
    42    79    81   ar
    43    79    77   ar
    44   103   104    1
    45   103   100    1
    46    81    80   ar
    47   108   107    1
    48   104   105    1
    49   109   107    1
    50   107   106    2
    51   102   101    2
    52    77    76    1
    53    77    78   ar
    54    80    78   ar
    55   101   100    1
    56   106   105    1
    57    89    88    2
    58   100    99    1
    59    20    18   ar
    60    88    90   am
    61    88    87    1
    62    97    95    1
    63    18    19   ar
    64    18    17    1
    65    87    86    1
    66    82    83    1
    67    95    96    1
    68    95    92    1
    69    17    16    1
    70    96    98    1
    71    86    83    1
    72    83    84    1
    73    29    30   ar
    74    29    27   ar
    75    10    11   ar
    76    10     8   ar
    77    91    92    1
    78    92    93    1
    79    11     9   ar
    80    16    13    1
    81    94    93    2
    82    30    28   ar
    83    27    26   ar
    84    84    85    2
    85     8     6   ar
    86     9     7   ar
    87    13    12    1
    88    13    14    1
    89    28    26   ar
    90    26    25    1
    91     6     7   ar
    92     6     5    1
    93     1     2    1
    94    14    15    2
    95    25    22    1
    96     5     2    1
    97     2     3    1
    98    22    21    1
    99    22    23    1
   100     3     4    2
   101    23    24    2
