@<TRIPOS>MOLECULE
tmp/2iryA00.pdb
 167 155 0 0 0
SMALL
GASTEIGER

@<TRIPOS>ATOM
      1  N         -6.5310   36.5000   22.5980 N.3    49  THR49      -0.1218
      2  CA        -7.5140   37.4290   23.1870 C.3    49  THR49       0.1862
      3  C         -6.7930   38.5600   23.9050 C.2    49  THR49       0.2287
      4  O         -5.8670   38.3120   24.6880 O.2    49  THR49      -0.2866
      5  CB        -8.4840   36.6490   24.1440 C.3    49  THR49       0.1770
      6  OG1       -9.2390   35.7220   23.3530 O.3    49  THR49      -0.2211
      7  CG2       -9.4460   37.5910   24.9090 C.3    49  THR49       0.0375
      8  N        -12.3620   43.4310   26.9770 N.3    63  PHE63      -0.1241
      9  CA       -11.8120   42.2830   26.2450 C.3    63  PHE63       0.1605
     10  C        -12.0900   42.4720   24.7580 C.2    63  PHE63       0.2264
     11  O        -13.1450   43.0020   24.3690 O.2    63  PHE63      -0.2867
     12  CB       -12.5100   40.9840   26.6570 C.3    63  PHE63       0.0534
     13  CG       -11.8880   40.2970   27.8270 C.ar   63  PHE63      -0.0203
     14  CD1      -10.6470   39.6710   27.7130 C.ar   63  PHE63      -0.0042
     15  CD2      -12.5620   40.2510   29.0400 C.ar   63  PHE63      -0.0042
     16  CE1      -10.0610   39.0110   28.8480 C.ar   63  PHE63      -0.0003
     17  CE2      -12.0030   39.6120   30.1670 C.ar   63  PHE63      -0.0003
     18  CZ       -10.7540   38.9840   30.0620 C.ar   63  PHE63      -0.0000
     19  N        -11.7620   40.0660   21.0820 N.3    65  LYS65      -0.1245
     20  CA       -11.4610   38.7750   20.4780 C.3    65  LYS65       0.1561
     21  C        -11.2870   38.8870   18.9760 C.2    65  LYS65       0.2260
     22  O        -10.1790   38.7430   18.4680 O.2    65  LYS65      -0.2867
     23  CB       -12.5370   37.7620   20.8740 C.3    65  LYS65       0.0271
     24  CG       -12.4320   37.3710   22.3450 C.3    65  LYS65       0.0035
     25  CD       -13.4640   36.3030   22.7440 C.3    65  LYS65       0.0206
     26  CE       -13.1310   35.7320   24.1300 C.3    65  LYS65       0.1093
     27  NZ       -11.8450   34.9120   24.1680 N.3    65  LYS65      -0.1314
     28  N         -2.9410   42.8250   28.6140 N.3   108  GLU108     -0.1245
     29  CA        -3.0340   41.3750   28.8100 C.3   108  GLU108      0.1567
     30  C         -3.2530   40.6360   27.4940 C.2   108  GLU108      0.2260
     31  O         -4.0440   41.0560   26.6630 O.2   108  GLU108     -0.2867
     32  CB        -4.1390   41.0140   29.8140 C.3   108  GLU108      0.0388
     33  CG        -3.8270   41.3810   31.2500 C.3   108  GLU108      0.1160
     34  CD        -4.9160   40.9720   32.2380 C.2   108  GLU108      0.3649
     35  OE1       -5.9420   40.4210   31.7840 O.co2 108  GLU108     -0.2457
     36  OE2       -4.7390   41.2170   33.4740 O.co2 108  GLU108     -0.2457
     37  N         -4.2200   36.7300   26.3160 N.3   110  HIS110     -0.1241
     38  CA        -4.8080   35.4890   26.8580 C.3   110  HIS110      0.1621
     39  C         -4.9010   34.4780   25.7010 C.2   110  HIS110      0.2264
     40  O         -5.2430   34.8730   24.5950 O.2   110  HIS110     -0.2867
     41  CB        -6.2160   35.7220   27.3860 C.3   110  HIS110      0.0745
     42  CG        -6.3070   36.6560   28.5570 C.ar  110  HIS110      0.0817
     43  ND1       -6.6650   36.2240   29.8210 N.ar  110  HIS110     -0.2268
     44  CD2       -6.1320   37.9960   28.6500 C.ar  110  HIS110      0.1154
     45  CE1       -6.7120   37.2620   30.6400 C.ar  110  HIS110      0.1986
     46  NE2       -6.3840   38.3470   29.9610 N.ar  110  HIS110     -0.2212
     47  N         -5.3020   25.9980   37.0940 N.3   136  ASP136     -0.1239
     48  CA        -5.2990   27.2740   37.7580 C.3   136  ASP136      0.1674
     49  C         -5.5310   27.0000   39.2370 C.2   136  ASP136      0.2266
     50  O         -6.5950   26.5250   39.6240 O.2   136  ASP136     -0.2867
     51  CB        -6.3680   28.1700   37.1530 C.3   136  ASP136      0.1410
     52  CG        -6.4800   29.4920   37.8360 C.2   136  ASP136      0.3668
     53  OD1       -5.6830   29.8240   38.7440 O.co2 136  ASP136     -0.2456
     54  OD2       -7.4110   30.2230   37.4530 O.co2 136  ASP136     -0.2456
     55  N         -6.2030   28.4230   42.6400 N.3   138  ASP138     -0.1239
     56  CA        -6.7660   29.6310   43.2180 C.3   138  ASP138      0.1674
     57  C         -6.9110   29.4320   44.7200 C.2   138  ASP138      0.2266
     58  O         -7.7380   28.6210   45.1590 O.2   138  ASP138     -0.2867
     59  CB        -8.1350   29.9390   42.6020 C.3   138  ASP138      0.1410
     60  CG        -8.5740   31.3800   42.8370 C.2   138  ASP138      0.3668
     61  OD1       -7.7890   32.3270   42.5590 O.co2 138  ASP138     -0.2456
     62  OD2       -9.7220   31.5750   43.2870 O.co2 138  ASP138     -0.2456
     63  N          0.6130   33.7760   38.5260 N.3   171  SER171     -0.1217
     64  CA        -0.2850   34.4210   37.5540 C.3   171  SER171      0.1889
     65  C         -0.1140   35.9260   37.3720 C.2   171  SER171      0.2288
     66  O         -0.5660   36.4820   36.3460 O.2   171  SER171     -0.2866
     67  CB        -1.7620   34.1210   37.9290 C.3   171  SER171      0.2089
     68  OG        -2.1530   34.9420   39.0380 O.3   171  SER171     -0.2183
     69  N         -1.5860   37.8550   39.4950 N.3   173  SER173     -0.1202
     70  CA        -2.7010   38.3210   40.3090 C.3   173  SER173      0.2020
     71  C         -2.6450   37.6790   41.6920 C.2   173  SER173      0.2619
     72  O         -1.8100   38.1000   42.5120 O.2   173  SER173     -0.2717
     73  CB        -4.0550   38.1800   39.5890 C.3   173  SER173      0.2103
     74  OG        -4.1900   36.8790   39.0800 O.3   173  SER173     -0.2182
     75  N         -3.4890   36.6810   41.9640 N.am  174  LYS174     -0.1965
     76  CA        -3.5910   36.0830   43.2920 C.3   174  LYS174      0.1728
     77  C         -3.1410   34.6410   43.3850 C.2   174  LYS174      0.2616
     78  O         -2.8960   34.1310   44.4900 O.2   174  LYS174     -0.2715
     79  CB        -5.0300   36.1820   43.8040 C.3   174  LYS174      0.0311
     80  CG        -5.4600   37.6080   44.0750 C.3   174  LYS174      0.0038
     81  CD        -4.8460   38.1270   45.3870 C.3   174  LYS174      0.0206
     82  CE        -4.8950   39.6520   45.4670 C.3   174  LYS174      0.1093
     83  NZ        -6.2910   40.1920   45.4850 N.3   174  LYS174     -0.1314
     84  N         -3.0500   33.9740   42.2430 N.am  175  GLY175     -0.1955
     85  CA        -2.8080   32.5430   42.2530 C.3   175  GLY175      0.1869
     86  C         -1.6490   32.0590   41.4030 C.2   175  GLY175      0.2309
     87  O         -0.7060   32.8080   41.1120 O.2   175  GLY175     -0.2863
     88  N         -0.5220   29.2290   38.2180 N.3   177  HIS177     -0.1241
     89  CA        -0.8460   28.3730   37.0910 C.3   177  HIS177      0.1621
     90  C          0.2520   27.3220   36.8800 C.2   177  HIS177      0.2264
     91  O          1.4700   27.6140   37.0470 O.2   177  HIS177     -0.2867
     92  CB        -1.0520   29.2110   35.8140 C.3   177  HIS177      0.0745
     93  CG        -2.1520   30.2190   35.9400 C.ar  177  HIS177      0.0817
     94  ND1       -2.2670   31.3130   35.1150 N.ar  177  HIS177     -0.2268
     95  CD2       -3.1770   30.3060   36.8260 C.ar  177  HIS177      0.1154
     96  CE1       -3.3440   32.0020   35.4500 C.ar  177  HIS177      0.1986
     97  NE2       -3.9080   31.4210   36.4880 N.ar  177  HIS177     -0.2212
     98  N         -8.4390   24.3570   39.5910 N.3   226  ASP226     -0.1239
     99  CA        -9.3330   24.5720   38.4610 C.3   226  ASP226      0.1674
    100  C         -8.7470   23.9060   37.2130 C.2   226  ASP226      0.2266
    101  O         -7.6780   24.2840   36.7300 O.2   226  ASP226     -0.2867
    102  CB        -9.6080   26.0610   38.2460 C.3   226  ASP226      0.1410
    103  CG       -10.6780   26.3170   37.1970 C.2   226  ASP226      0.3668
    104  OD1      -11.3520   25.3390   36.7620 O.co2 226  ASP226     -0.2456
    105  OD2      -10.8560   27.5070   36.8360 O.co2 226  ASP226     -0.2456
    106  N        -10.1200   25.3870   32.5860 N.3   229  GLN229     -0.1245
    107  CA        -9.4850   26.2600   31.5710 C.3   229  GLN229      0.1566
    108  C         -8.9220   25.4830   30.3850 C.2   229  GLN229      0.2260
    109  O         -8.4680   26.0600   29.3870 O.2   229  GLN229     -0.2867
    110  CB        -8.4010   27.1620   32.1950 C.3   229  GLN229      0.0367
    111  CG        -8.9740   28.2420   33.1000 C.3   229  GLN229      0.0905
    112  CD        -9.7640   29.2750   32.3190 C.2   229  GLN229      0.2608
    113  OE1       -9.2080   29.9870   31.4770 O.2   229  GLN229     -0.2717
    114  NE2      -11.0580   29.3780   32.6060 N.am  229  GLN229     -0.0878
    115  N        -12.1700   28.1640   26.4420 N.3   234  LYS234     -0.1231
    116  CA       -11.5630   29.0050   27.5290 C.3   234  LYS234      0.1693
    117  C        -10.1670   29.5370   27.1920 C.2   234  LYS234      0.2593
    118  O         -9.4380   28.9210   26.4310 O.2   234  LYS234     -0.2718
    119  CB       -11.5230   28.2650   28.8690 C.3   234  LYS234      0.0285
    120  CG       -12.9000   27.9290   29.4750 C.3   234  LYS234      0.0035
    121  CD       -13.7170   29.1890   29.6550 C.3   234  LYS234      0.0206
    122  CE       -14.7670   29.0490   30.7580 C.3   234  LYS234      0.1093
    123  NZ       -15.7700   28.0130   30.4100 N.3   234  LYS234     -0.1314
    124  N         -9.8050   30.6940   27.7570 N.am  235  THR235     -0.1939
    125  CA        -8.4430   31.2560   27.5330 C.3   235  THR235      0.2028
    126  C         -7.8190   31.5580   28.8760 C.2   235  THR235      0.2643
    127  O         -8.5430   31.7880   29.8690 O.2   235  THR235     -0.2714
    128  CB        -8.4470   32.5550   26.6760 C.3   235  THR235      0.1808
    129  OG1       -9.2260   33.5790   27.3210 O.3   235  THR235     -0.2208
    130  CG2       -9.0130   32.2860   25.3690 C.3   235  THR235      0.0379
    131  N         -6.4830   31.5690   28.9110 N.am  236  THR236     -0.1936
    132  CA        -5.7230   31.7720   30.1490 C.3   236  THR236      0.2028
    133  C         -4.6250   32.7850   29.8510 C.2   236  THR236      0.2642
    134  O         -4.0230   32.7570   28.7660 O.2   236  THR236     -0.2714
    135  CB        -5.1310   30.4060   30.6230 C.3   236  THR236      0.1808
    136  OG1       -6.2170   29.5210   30.9790 O.3   236  THR236     -0.2208
    137  CG2       -4.2050   30.5790   31.8050 C.3   236  THR236      0.0379
    138  N         -4.3680   33.6810   30.8080 N.am  237  ILE237     -0.1977
    139  CA        -3.2930   34.6750   30.6730 C.3   237  ILE237      0.1596
    140  C         -1.9970   34.0310   30.1590 C.2   237  ILE237      0.2287
    141  O         -1.5510   32.9770   30.6710 O.2   237  ILE237     -0.2864
    142  CB        -3.0540   35.4200   32.0290 C.3   237  ILE237      0.0276
    143  CG1       -2.1610   36.6410   31.7990 C.3   237  ILE237      0.0022
    144  CG2       -2.4960   34.4420   33.1100 C.3   237  ILE237      0.0022
    145  CD1       -2.9260   37.7780   31.0910 C.3   237  ILE237      0.0001
    146  N         -0.1710   42.0980   33.6630 N.3   243  ARG243     -0.1245
    147  CA        -1.5090   42.0750   34.2290 C.3   243  ARG243      0.1563
    148  C         -1.9920   43.5310   34.3500 C.2   243  ARG243      0.2260
    149  O         -1.2080   44.4480   34.7270 O.2   243  ARG243     -0.2867
    150  CB        -1.5290   41.4100   35.6180 C.3   243  ARG243      0.0307
    151  CG        -0.9980   39.9430   35.6830 C.3   243  ARG243      0.0489
    152  CD        -1.6830   39.0670   34.6120 C.3   243  ARG243      0.2205
    153  NE        -3.1430   39.1150   34.6250 N.pl3 243  ARG243     -0.0865
    154  CZ        -3.9290   38.1360   35.0700 C.cat 243  ARG243      0.5346
    155  NH1       -3.4110   37.0220   35.5550 N.pl3 243  ARG243      0.1354
    156  NH2       -5.2500   38.2670   35.0110 N.pl3 243  ARG243      0.1354
    157  N         -3.4560   45.4190   36.5640 N.3   245  ARG245     -0.1245
    158  CA        -3.7200   45.5090   37.9880 C.3   245  ARG245      0.1563
    159  C         -3.0310   46.7580   38.4920 C.2   245  ARG245      0.2260
    160  O         -2.3150   47.4190   37.7440 O.2   245  ARG245     -0.2867
    161  CB        -3.1770   44.2670   38.7040 C.3   245  ARG245      0.0307
    162  CG        -3.8760   42.9700   38.2550 C.3   245  ARG245      0.0489
    163  CD        -3.2750   41.7600   38.9100 C.3   245  ARG245      0.2205
    164  NE        -3.3570   41.8260   40.3770 N.pl3 245  ARG245     -0.0865
    165  CZ        -4.4280   41.4970   41.0970 C.cat 245  ARG245      0.5346
    166  NH1       -5.5410   41.0570   40.5080 N.pl3 245  ARG245      0.1354
    167  NH2       -4.3830   41.6020   42.4230 N.pl3 245  ARG245      0.1354
@<TRIPOS>BOND
     1    22    21    2
     2    21    20    1
     3    20    23    1
     4    20    19    1
     5    23    24    1
     6    24    25    1
     7     1     2    1
     8    25    26    1
     9     2     3    1
    10     2     5    1
    11     6     5    1
    12     3     4    2
    13    26    27    1
    14     5     7    1
    15    11    10    2
    16    40    39    2
    17    10     9    1
    18   130   128    1
    19    39    38    1
    20     9    12    1
    21     9     8    1
    22    37    38    1
    23   118   117    2
    24   115   116    1
    25    12    13    1
    26    31    30    2
    27   128   129    1
    28   128   125    1
    29    38    41    1
    30   117   116    1
    31   117   124   am
    32    41    42    1
    33    30    29    1
    34   116   119    1
    35   125   124    1
    36   125   126    1
    37    14    13   ar
    38    14    16   ar
    39    13    15   ar
    40    42    44   ar
    41    42    43   ar
    42    28    29    1
    43    44    46   ar
    44   134   133    2
    45    29    32    1
    46    16    18   ar
    47   119   120    1
    48   126   131   am
    49   126   127    2
    50   131   132    1
    51    15    17   ar
    52   109   108    2
    53   120   121    1
    54   121   122    1
    55    32    33    1
    56    43    45   ar
    57   133   132    1
    58   133   138   am
    59    46    45   ar
    60    18    17   ar
    61   132   135    1
    62   140   141    2
    63   140   139    1
    64   108   107    1
    65   123   122    1
    66   135   136    1
    67   135   137    1
    68   139   138    1
    69   139   142    1
    70   145   143    1
    71    33    34    1
    72   113   112    2
    73   107   110    1
    74   107   106    1
    75    35    34   ar
    76   143   142    1
    77   142   144    1
    78   110   111    1
    79    34    36   ar
    80   112   114   am
    81   112   111    1
    82   146   147    1
    83   147   148    1
    84   147   150    1
    85   148   149    2
    86   152   153    1
    87   152   151    1
    88   153   154    2
    89   156   154    1
    90   154   155    1
    91    94    96   ar
    92    94    93   ar
    93    96    97   ar
    94   150   151    1
    95    92    93    1
    96    92    89    1
    97    93    95   ar
    98    66    65    2
    99    97    95   ar
   100   157   158    1
   101   101   100    2
   102   104   103   ar
   103   105   103   ar
   104    90    91    2
   105    90    89    1
   106    89    88    1
   107    47    48    1
   108    51    48    1
   109    51    52    1
   110   103   102    1
   111   100    99    1
   112    65    64    1
   113    54    52   ar
   114    64    67    1
   115    64    63    1
   116   160   159    2
   117    48    49    1
   118    52    53   ar
   119    67    68    1
   120   158   159    1
   121   158   161    1
   122   102    99    1
   123   162   161    1
   124   162   163    1
   125    99    98    1
   126   163   164    1
   127    74    73    1
   128    49    50    2
   129    69    70    1
   130    73    70    1
   131    70    71    1
   132   164   165    2
   133   166   165    1
   134   165   167    1
   135    87    86    2
   136    86    85    1
   137    71    75   am
   138    71    72    2
   139    75    76    1
   140    84    85    1
   141    84    77   am
   142    61    60   ar
   143    59    60    1
   144    59    56    1
   145    55    56    1
   146    60    62   ar
   147    56    57    1
   148    76    77    1
   149    76    79    1
   150    77    78    2
   151    79    80    1
   152    80    81    1
   153    57    58    2
   154    81    82    1
   155    82    83    1
