@<TRIPOS>MOLECULE
tmp/2irzA00.pdb
 224 213 0 0 0
SMALL
GASTEIGER

@<TRIPOS>ATOM
      1  N         34.1660   52.1630    7.9930 N.3    17  GLY17      -0.1210
      2  CA        33.1740   51.5660    7.1190 C.3    17  GLY17       0.1956
      3  C         33.6120   50.6560    5.9890 C.2    17  GLY17       0.2612
      4  O         32.8670   50.5000    5.0220 O.2    17  GLY17      -0.2717
      5  N         34.7900   50.0480    6.0810 N.am   18  GLN18      -0.1965
      6  CA        35.2260   49.1580    5.0090 C.3    18  GLN18       0.1733
      7  C         35.6860   47.7640    5.4460 C.2    18  GLN18       0.2617
      8  O         36.2810   47.0250    4.6620 O.2    18  GLN18      -0.2715
      9  CB        36.3060   49.8440    4.1670 C.3    18  GLN18       0.0408
     10  CG        35.8010   51.1270    3.5060 C.3    18  GLN18       0.0908
     11  CD        36.7210   51.6420    2.4210 C.2    18  GLN18       0.2608
     12  OE1       37.8880   51.9510    2.6700 O.2    18  GLN18      -0.2717
     13  NE2       36.1970   51.7430    1.2040 N.am   18  GLN18      -0.0878
     14  N         35.3930   47.4020    6.6910 N.am   19  GLY19      -0.1940
     15  CA        35.7630   46.0860    7.1800 C.3    19  GLY19       0.2014
     16  C         36.5790   46.1100    8.4570 C.2    19  GLY19       0.2638
     17  O         37.5070   46.9080    8.5900 O.2    19  GLY19      -0.2714
     18  N         36.2270   45.2360    9.3980 N.am   20  TYR20      -0.1973
     19  CA        36.9480   45.1460   10.6630 C.3    20  TYR20       0.1639
     20  C         37.9900   44.0490   10.5200 C.2    20  TYR20       0.2290
     21  O         37.6730   42.9400   10.0980 O.2    20  TYR20      -0.2864
     22  CB        35.9960   44.8030   11.8150 C.3    20  TYR20       0.0560
     23  CG        35.0020   45.8920   12.1430 C.ar   20  TYR20      -0.0198
     24  CD1       33.8220   46.0350   11.4120 C.ar   20  TYR20      -0.0009
     25  CD2       35.2480   46.7910   13.1800 C.ar   20  TYR20      -0.0009
     26  CE1       32.9110   47.0500   11.7090 C.ar   20  TYR20       0.0417
     27  CE2       34.3450   47.8070   13.4830 C.ar   20  TYR20       0.0417
     28  CZ        33.1830   47.9320   12.7440 C.ar   20  TYR20       0.1957
     29  OH        32.3050   48.9540   13.0290 O.3    20  TYR20      -0.2866
     30  N         40.5820   40.4710    7.5780 N.3    36  LEU36      -0.1245
     31  CA        39.1690   40.7660    7.7890 C.3    36  LEU36       0.1561
     32  C         38.4690   39.6550    8.5720 C.2    36  LEU36       0.2260
     33  O         38.5440   38.4870    8.2010 O.2    36  LEU36      -0.2867
     34  CB        38.4760   40.9350    6.4360 C.3    36  LEU36       0.0270
     35  CG        36.9860   41.2880    6.4650 C.3    36  LEU36       0.0019
     36  CD1       36.8150   42.7840    6.7170 C.3    36  LEU36       0.0001
     37  CD2       36.3560   40.9030    5.1390 C.3    36  LEU36       0.0001
     38  N         35.5640   37.5880    9.2420 N.3    38  ASP38      -0.1239
     39  CA        34.3960   37.2480    8.4420 C.3    38  ASP38       0.1674
     40  C         33.6200   36.0240    8.9130 C.2    38  ASP38       0.2266
     41  O         34.0580   34.8990    8.7030 O.2    38  ASP38      -0.2867
     42  CB        34.8440   37.0120    7.0050 C.3    38  ASP38       0.1410
     43  CG        33.7080   37.0990    6.0290 C.2    38  ASP38       0.3668
     44  OD1       33.4070   38.2250    5.6020 O.co2  38  ASP38      -0.2456
     45  OD2       33.1140   36.0530    5.7040 O.co2  38  ASP38      -0.2456
     46  N         30.7440   35.1300    7.7280 N.3    40  GLY40      -0.1210
     47  CA        29.8910   34.6510    6.6530 C.3    40  GLY40       0.1956
     48  C         30.5450   33.6700    5.6930 C.2    40  GLY40       0.2612
     49  O         29.9340   33.2690    4.7000 O.2    40  GLY40      -0.2717
     50  N         31.7820   33.2740    5.9840 N.am   41  SER41      -0.1952
     51  CA        32.5090   32.3370    5.1320 C.3    41  SER41       0.1924
     52  C         33.3940   31.4370    5.9910 C.2    41  SER41       0.2314
     53  O         33.4830   31.6300    7.2040 O.2    41  SER41      -0.2863
     54  CB        33.3620   33.0990    4.1160 C.3    41  SER41       0.2116
     55  OG        34.3370   33.8880    4.7720 O.3    41  SER41      -0.2180
     56  N         31.8090   35.1950   -3.8650 N.3    77  TYR77      -0.1227
     57  CA        30.8830   35.6540   -2.8260 C.3    77  TYR77       0.1736
     58  C         29.7880   36.4690   -3.5030 C.2    77  TYR77       0.2596
     59  O         29.8040   36.6570   -4.7220 O.2    77  TYR77      -0.2718
     60  CB        31.5840   36.5750   -1.8200 C.3    77  TYR77       0.0548
     61  CG        32.8180   36.0150   -1.1510 C.ar   77  TYR77      -0.0200
     62  CD1       32.7290   34.9860   -0.2100 C.ar   77  TYR77      -0.0009
     63  CD2       34.0730   36.5600   -1.4170 C.ar   77  TYR77      -0.0009
     64  CE1       33.8730   34.5190    0.4580 C.ar   77  TYR77       0.0417
     65  CE2       35.2130   36.1070   -0.7640 C.ar   77  TYR77       0.0417
     66  CZ        35.1110   35.0900    0.1730 C.ar   77  TYR77       0.1957
     67  OH        36.2490   34.6610    0.8230 O.3    77  TYR77      -0.2866
     68  N         28.8380   36.9570   -2.7080 N.am   78  THR78      -0.1939
     69  CA        27.7710   37.7990   -3.2340 C.3    78  THR78       0.2028
     70  C         28.4570   39.0160   -3.8470 C.2    78  THR78       0.2642
     71  O         27.9990   39.5870   -4.7830 O.2    78  THR78      -0.2714
     72  CB        26.8190   38.2650   -2.1200 C.3    78  THR78       0.1808
     73  OG1       26.0580   37.1490   -1.6440 O.3    78  THR78      -0.2208
     74  CG2       25.8670   39.3470   -2.6430 C.3    78  THR78       0.0379
     75  N         29.5100   39.4600   -3.1640 N.am   79  GLN79      -0.1976
     76  CA        30.3150   40.5840   -3.6160 C.3    79  GLN79       0.1601
     77  C         31.7680   40.1290   -3.7240 C.2    79  GLN79       0.2287
     78  O         32.3690   39.7210   -2.7280 O.2    79  GLN79      -0.2864
     79  CB        30.2290   41.7460   -2.6270 C.3    79  GLN79       0.0394
     80  CG        31.0390   42.9610   -3.0560 C.3    79  GLN79       0.0908
     81  CD        30.9200   44.1140   -2.0900 C.2    79  GLN79       0.2608
     82  OE1       31.7950   44.3390   -1.2500 O.2    79  GLN79      -0.2717
     83  NE2       29.8240   44.8460   -2.1920 N.am   79  GLN79      -0.0878
     84  N         36.9640   42.5710   -7.5590 N.3   113  LYS113     -0.1231
     85  CA        36.0720   43.2940   -6.6560 C.3   113  LYS113      0.1693
     86  C         35.9900   42.7260   -5.2420 C.2   113  LYS113      0.2592
     87  O         34.9400   42.7910   -4.6010 O.2   113  LYS113     -0.2718
     88  CB        34.6640   43.3590   -7.2580 C.3   113  LYS113      0.0285
     89  CG        34.5970   44.0840   -8.6000 C.3   113  LYS113      0.0035
     90  CD        33.2020   44.0130   -9.1990 C.3   113  LYS113      0.0206
     91  CE        33.1840   44.5780  -10.6140 C.3   113  LYS113      0.1093
     92  NZ        31.8380   44.4500  -11.2420 N.3   113  LYS113     -0.1314
     93  N         37.0990   42.1790   -4.7590 N.am  114  PHE114     -0.1976
     94  CA        37.1470   41.6070   -3.4230 C.3   114  PHE114      0.1639
     95  C         37.8360   42.5810   -2.4820 C.2   114  PHE114      0.2290
     96  O         37.2290   43.0710   -1.5290 O.2   114  PHE114     -0.2864
     97  CB        37.8980   40.2670   -3.4390 C.3   114  PHE114      0.0560
     98  CG        38.0730   39.6580   -2.0720 C.ar  114  PHE114     -0.0200
     99  CD1       36.9660   39.3770   -1.2780 C.ar  114  PHE114     -0.0042
    100  CD2       39.3440   39.3880   -1.5700 C.ar  114  PHE114     -0.0042
    101  CE1       37.1210   38.8410   -0.0030 C.ar  114  PHE114     -0.0003
    102  CE2       39.5090   38.8500   -0.2960 C.ar  114  PHE114     -0.0003
    103  CZ        38.3950   38.5770    0.4880 C.ar  114  PHE114     -0.0000
    104  N         39.2730   45.9720   -1.0710 N.3   116  ILE116     -0.1245
    105  CA        38.7040   47.3120   -1.0990 C.3   116  ILE116      0.1561
    106  C         39.7800   48.3780   -0.9030 C.2   116  ILE116      0.2260
    107  O         40.5360   48.3400    0.0660 O.2   116  ILE116     -0.2867
    108  CB        37.6280   47.4470    0.0020 C.3   116  ILE116      0.0252
    109  CG1       36.5620   46.3620   -0.1890 C.3   116  ILE116      0.0019
    110  CG2       36.9870   48.8330   -0.0430 C.3   116  ILE116      0.0019
    111  CD1       35.5040   46.3110    0.9020 C.3   116  ILE116      0.0001
    112  N         42.9460   46.0410    4.8800 N.3   121  TRP121     -0.1241
    113  CA        43.0530   44.6080    5.1580 C.3   121  TRP121      0.1605
    114  C         43.5420   43.8970    3.9010 C.2   121  TRP121      0.2264
    115  O         43.2240   44.2990    2.7780 O.2   121  TRP121     -0.2867
    116  CB        41.7470   43.9860    5.6850 C.3   121  TRP121      0.0550
    117  CG        40.4820   44.2670    4.9350 C.ar  121  TRP121      0.0003
    118  CD1       39.5980   45.2850    5.1690 C.ar  121  TRP121      0.0946
    119  CD2       39.9160   43.4770    3.8840 C.ar  121  TRP121      0.0152
    120  NE1       38.5110   45.1710    4.3290 N.ar  121  TRP121     -0.2442
    121  CE2       38.6820   44.0720    3.5290 C.ar  121  TRP121      0.0810
    122  CE3       40.3310   42.3230    3.2040 C.ar  121  TRP121      0.0012
    123  CZ2       37.8600   43.5520    2.5240 C.ar  121  TRP121      0.0191
    124  CZ3       39.5120   41.8050    2.2030 C.ar  121  TRP121      0.0001
    125  CH2       38.2900   42.4220    1.8740 C.ar  121  TRP121      0.0015
    126  N         41.3360   37.4640    4.5350 N.3   124  ILE124     -0.1245
    127  CA        40.0480   37.2330    5.1680 C.3   124  ILE124      0.1561
    128  C         40.0770   35.9800    6.0400 C.2   124  ILE124      0.2260
    129  O         40.6320   34.9520    5.6500 O.2   124  ILE124     -0.2867
    130  CB        38.9330   37.0930    4.0900 C.3   124  ILE124      0.0252
    131  CG1       37.5710   36.8970    4.7570 C.3   124  ILE124      0.0019
    132  CG2       39.2600   35.9090    3.1390 C.3   124  ILE124      0.0019
    133  CD1       36.3970   36.9520    3.7920 C.3   124  ILE124      0.0001
    134  N         26.7010   37.8360    9.4830 N.3   222  ASP222     -0.1225
    135  CA        27.9450   38.0070    8.7420 C.3   222  ASP222      0.1805
    136  C         28.6460   39.3310    9.0210 C.2   222  ASP222      0.2598
    137  O         28.2350   40.3910    8.5470 O.2   222  ASP222     -0.2718
    138  CB        27.6720   37.8590    7.2390 C.3   222  ASP222      0.1424
    139  CG        28.9250   38.0080    6.3910 C.2   222  ASP222      0.3668
    140  OD1       30.0490   37.9440    6.9340 O.co2 222  ASP222     -0.2456
    141  OD2       28.7830   38.1780    5.1630 O.co2 222  ASP222     -0.2456
    142  N         29.7220   39.2460    9.7940 N.am  223  SER223     -0.1938
    143  CA        30.5220   40.4030   10.1580 C.3   223  SER223      0.2055
    144  C         31.2030   41.0360    8.9450 C.2   223  SER223      0.2644
    145  O         31.6470   42.1840    9.0070 O.2   223  SER223     -0.2714
    146  CB        31.5830   39.9890   11.1770 C.3   223  SER223      0.2130
    147  OG        32.4630   39.0320   10.6110 O.3   223  SER223     -0.2179
    148  N         31.2850   40.2810    7.8500 N.am  224  GLY224     -0.1939
    149  CA        31.9190   40.7720    6.6400 C.3   224  GLY224      0.2014
    150  C         30.9900   41.4610    5.6490 C.2   224  GLY224      0.2640
    151  O         31.4280   41.8600    4.5740 O.2   224  GLY224     -0.2714
    152  N         29.7100   41.5770    5.9940 N.am  225  THR225     -0.1936
    153  CA        28.7290   42.2520    5.1400 C.3   225  THR225      0.2028
    154  C         28.3640   43.5600    5.8400 C.2   225  THR225      0.2643
    155  O         28.1280   43.5860    7.0450 O.2   225  THR225     -0.2714
    156  CB        27.4540   41.3930    4.9430 C.3   225  THR225      0.1808
    157  OG1       27.7360   40.3310    4.0260 O.3   225  THR225     -0.2208
    158  CG2       26.2910   42.2490    4.3840 C.3   225  THR225      0.0379
    159  N         28.3270   44.6450    5.0790 N.am  226  THR226     -0.1936
    160  CA        28.0320   45.9590    5.6300 C.3   226  THR226      0.2028
    161  C         26.6090   46.1430    6.1530 C.2   226  THR226      0.2642
    162  O         26.3990   46.5150    7.3060 O.2   226  THR226     -0.2714
    163  CB        28.2680   47.0550    4.5670 C.3   226  THR226      0.1808
    164  OG1       29.5350   46.8440    3.9290 O.3   226  THR226     -0.2208
    165  CG2       28.2520   48.4390    5.2140 C.3   226  THR226      0.0379
    166  N         25.6420   45.8620    5.2860 N.am  227  ASN227     -0.1971
    167  CA        24.2250   46.0680    5.5640 C.3   227  ASN227      0.1688
    168  C         23.4310   44.9910    6.2800 C.2   227  ASN227      0.2292
    169  O         23.9030   43.8920    6.5530 O.2   227  ASN227     -0.2864
    170  CB        23.4780   46.3070    4.2450 C.3   227  ASN227      0.1181
    171  CG        23.9590   47.5240    3.4950 C.2   227  ASN227      0.2629
    172  OD1       24.9000   48.1930    3.9000 O.2   227  ASN227     -0.2716
    173  ND2       23.3000   47.8140    2.3790 N.am  227  ASN227     -0.0877
    174  N         20.6940   42.9520    5.2760 N.3   229  ARG229     -0.1245
    175  CA        20.0730   42.6010    4.0070 C.3   229  ARG229      0.1563
    176  C         18.8400   41.7530    4.2800 C.2   229  ARG229      0.2260
    177  O         18.8680   40.8710    5.1360 O.2   229  ARG229     -0.2867
    178  CB        21.0820   41.8560    3.1260 C.3   229  ARG229      0.0307
    179  CG        22.4310   42.5870    3.0200 C.3   229  ARG229      0.0489
    180  CD        23.3880   41.8840    2.0670 C.3   229  ARG229      0.2205
    181  NE        22.8470   41.8770    0.7100 N.pl3 229  ARG229     -0.0865
    182  CZ        22.8780   40.8330   -0.1110 C.cat 229  ARG229      0.5346
    183  NH1       23.4330   39.6920    0.2750 N.pl3 229  ARG229      0.1354
    184  NH2       22.3230   40.9240   -1.3170 N.pl3 229  ARG229      0.1354
    185  N         24.5090   54.8310    7.5260 N.3   301  ARG301     -0.1245
    186  CA        25.9650   54.8790    7.5930 C.3   301  ARG301      0.1563
    187  C         26.6470   56.0550    6.9070 C.2   301  ARG301      0.2260
    188  O         26.2740   56.4550    5.8060 O.2   301  ARG301     -0.2867
    189  CB        26.5380   53.5670    7.0550 C.3   301  ARG301      0.0307
    190  CG        26.1640   52.3500    7.9000 C.3   301  ARG301      0.0489
    191  CD        26.6500   51.0550    7.2740 C.3   301  ARG301      0.2205
    192  NE        28.1030   51.0190    7.1230 N.pl3 301  ARG301     -0.0865
    193  CZ        28.9580   50.5960    8.0520 C.cat 301  ARG301      0.5346
    194  NH1       28.5280   50.1580    9.2240 N.pl3 301  ARG301      0.1354
    195  NH2       30.2580   50.6080    7.8010 N.pl3 301  ARG301      0.1354
    196  N         24.1900   56.9210    3.9440 N.3   315  LYS315     -0.1245
    197  CA        23.5920   55.9740    3.0200 C.3   315  LYS315      0.1561
    198  C         22.6880   55.0590    3.8410 C.2   315  LYS315      0.2260
    199  O         23.0650   54.6200    4.9330 O.2   315  LYS315     -0.2867
    200  CB        24.6710   55.1320    2.3290 C.3   315  LYS315      0.0271
    201  CG        24.1110   54.0760    1.3770 C.3   315  LYS315      0.0035
    202  CD        25.1860   53.1010    0.9070 C.3   315  LYS315      0.0206
    203  CE        24.5870   52.0010    0.0370 C.3   315  LYS315      0.1093
    204  NZ        25.5850   50.9470   -0.3380 N.3   315  LYS315     -0.1314
    205  N         19.2180   46.8090    2.7330 N.3   319  SER319     -0.1217
    206  CA        19.0130   46.5440    1.3130 C.3   319  SER319      0.1889
    207  C         18.3820   45.1860    1.0280 C.2   319  SER319      0.2288
    208  O         18.1800   44.3850    1.9370 O.2   319  SER319     -0.2866
    209  CB        20.3550   46.6520    0.5860 C.3   319  SER319      0.2089
    210  OG        21.3210   45.8170    1.2010 O.3   319  SER319     -0.2183
    211  N         27.1670   44.2570    9.5640 N.3   329  ALA329     -0.1245
    212  CA        27.6810   45.2420   10.5030 C.3   329  ALA329      0.1562
    213  C         26.5920   46.1570   11.0600 C.2   329  ALA329      0.2260
    214  O         26.6710   46.5870   12.2130 O.2   329  ALA329     -0.2867
    215  CB        28.7730   46.0690    9.8310 C.3   329  ALA329      0.0290
    216  N         27.1160   46.0990   14.9710 N.3   333  GLU333     -0.1245
    217  CA        27.6860   47.2880   15.6030 C.3   333  GLU333      0.1567
    218  C         26.9220   47.7970   16.8230 C.2   333  GLU333      0.2260
    219  O         27.4410   48.6070   17.5880 O.2   333  GLU333     -0.2867
    220  CB        27.8420   48.4170   14.5760 C.3   333  GLU333      0.0388
    221  CG        28.9690   48.1610   13.5850 C.3   333  GLU333      0.1160
    222  CD        29.0990   49.2350   12.5240 C.2   333  GLU333      0.3649
    223  OE1       29.9970   49.1070   11.6690 O.co2 333  GLU333     -0.2457
    224  OE2       28.3090   50.2040   12.5420 O.co2 333  GLU333     -0.2457
@<TRIPOS>BOND
     1    92    91    1
     2    91    90    1
     3    90    89    1
     4    89    88    1
     5    84    85    1
     6    88    85    1
     7    85    86    1
     8    86    93   am
     9    86    87    2
    10    71    70    2
    11    93    94    1
    12    59    58    2
    13    56    57    1
    14    70    69    1
    15    70    75   am
    16    77    76    1
    17    77    78    2
    18    76    75    1
    19    76    79    1
    20    58    57    1
    21    58    68   am
    22    97    94    1
    23    97    98    1
    24    94    95    1
    25    69    68    1
    26    69    72    1
    27    80    79    1
    28    80    81    1
    29    57    60    1
    30    74    72    1
    31    95    96    2
    32    83    81   am
    33    72    73    1
    34    81    82    2
    35    98   100   ar
    36    98    99   ar
    37    60    61    1
    38   100   102   ar
    39    63    61   ar
    40    63    65   ar
    41   184   182    1
    42    99   101   ar
    43    61    62   ar
    44   105   104    1
    45   105   106    1
    46   105   108    1
    47   106   107    2
    48    65    66   ar
    49   204   203    1
    50   102   103   ar
    51    62    64   ar
    52   109   108    1
    53   109   111    1
    54   182   183    1
    55   182   181    2
    56   110   108    1
    57   101   103   ar
    58   203   202    1
    59    66    64   ar
    60    66    67    1
    61   209   210    1
    62   209   206    1
    63   181   180    1
    64   202   201    1
    65   207   206    1
    66   207   208    2
    67    13    11   am
    68   206   205    1
    69   201   200    1
    70   125   124   ar
    71   125   123   ar
    72   180   179    1
    73   124   122   ar
    74   200   197    1
    75   173   171   am
    76    11    12    2
    77    11    10    1
    78   123   121   ar
    79   115   114    2
    80   197   198    1
    81   197   196    1
    82   179   178    1
    83   178   175    1
    84   132   130    1
    85   122   119   ar
    86   171   172    2
    87   171   170    1
    88    10     9    1
    89   121   119   ar
    90   121   120   ar
    91   133   131    1
    92   198   199    2
    93   119   117   ar
    94   114   113    1
    95   164   163    1
    96   175   176    1
    97   175   174    1
    98   157   156    1
    99   130   131    1
   100   130   127    1
   101    54    55    1
   102    54    51    1
   103     9     6    1
   104   170   167    1
   105   176   177    2
   106   120   118   ar
   107   158   156    1
   108   126   127    1
   109   163   165    1
   110   163   160    1
   111   151   150    2
   112     8     7    2
   113    49    48    2
   114   112   113    1
   115   117   118   ar
   116   117   116    1
   117   156   153    1
   118     6     7    1
   119     6     5    1
   120     4     3    2
   121   159   160    1
   122   159   154   am
   123    51    50    1
   124    51    52    1
   125    37    35    1
   126   153   154    1
   127   153   152    1
   128   113   116    1
   129   141   139   ar
   130   127   128    1
   131   166   167    1
   132   166   161   am
   133     7    14   am
   134   167   168    1
   135    44    43   ar
   136   160   161    1
   137   150   152   am
   138   150   149    1
   139   129   128    2
   140    48    50   am
   141    48    47    1
   142    45    43   ar
   143   188   187    2
   144   154   155    2
   145     3     5   am
   146     3     2    1
   147    52    53    2
   148    43    42    1
   149   161   162    2
   150   168   169    2
   151   139   140   ar
   152   139   138    1
   153    34    35    1
   154    34    31    1
   155    35    36    1
   156   149   148    1
   157    47    46    1
   158    14    15    1
   159   187   186    1
   160    42    39    1
   161   189   186    1
   162   189   190    1
   163     2     1    1
   164   192   191    1
   165   192   193    2
   166    15    16    1
   167   138   135    1
   168   191   190    1
   169   185   186    1
   170    30    31    1
   171    31    32    1
   172   195   193    1
   173   148   144   am
   174   193   194    1
   175    33    32    2
   176    39    40    1
   177    39    38    1
   178    16    17    2
   179    16    18   am
   180   137   136    2
   181    41    40    2
   182   135   136    1
   183   135   134    1
   184   144   145    2
   185   144   143    1
   186   136   142   am
   187    18    19    1
   188   211   212    1
   189   142   143    1
   190   215   212    1
   191    21    20    2
   192   143   146    1
   193   212   213    1
   194    20    19    1
   195   147   146    1
   196    19    22    1
   197   213   214    2
   198    24    26   ar
   199    24    23   ar
   200   223   222   ar
   201    26    28   ar
   202    22    23    1
   203    23    25   ar
   204   222   224   ar
   205   222   221    1
   206    28    29    1
   207    28    27   ar
   208    25    27   ar
   209   221   220    1
   210   220   217    1
   211   216   217    1
   212   217   218    1
   213   218   219    2
