@<TRIPOS>MOLECULE
tmp/2is0A00.pdb
 206 196 0 0 0
SMALL
GASTEIGER

@<TRIPOS>ATOM
      1  N         34.3280   52.0980    8.0700 N.3    17  GLY17      -0.1210
      2  CA        33.3230   51.5210    7.1990 C.3    17  GLY17       0.1956
      3  C         33.7390   50.5830    6.0850 C.2    17  GLY17       0.2612
      4  O         32.9290   50.3100    5.2070 O.2    17  GLY17      -0.2717
      5  N         34.9680   50.0750    6.1050 N.am   18  GLN18      -0.1965
      6  CA        35.3930   49.1730    5.0360 C.3    18  GLN18       0.1733
      7  C         35.8060   47.7710    5.4730 C.2    18  GLN18       0.2617
      8  O         36.3900   47.0300    4.7000 O.2    18  GLN18      -0.2715
      9  CB        36.5140   49.8210    4.2240 C.3    18  GLN18       0.0408
     10  CG        36.0620   51.0650    3.4820 C.3    18  GLN18       0.0908
     11  CD        37.2180   51.8340    2.8900 C.2    18  GLN18       0.2608
     12  OE1       38.1690   52.1900    3.5950 O.2    18  GLN18      -0.2717
     13  NE2       37.1480   52.1020    1.5920 N.am   18  GLN18      -0.0878
     14  N         35.4830   47.4170    6.7130 N.am   19  GLY19      -0.1940
     15  CA        35.8040   46.0970    7.2140 C.3    19  GLY19       0.2014
     16  C         36.6110   46.1020    8.4970 C.2    19  GLY19       0.2638
     17  O         37.5320   46.8890    8.6580 O.2    19  GLY19      -0.2714
     18  N         36.2500   45.2110    9.4140 N.am   20  TYR20      -0.1973
     19  CA        36.9580   45.0980   10.6750 C.3    20  TYR20       0.1639
     20  C         37.9940   43.9990   10.5140 C.2    20  TYR20       0.2290
     21  O         37.6660   42.8740   10.1480 O.2    20  TYR20      -0.2864
     22  CB        35.9870   44.7730   11.8150 C.3    20  TYR20       0.0560
     23  CG        35.0220   45.9050   12.1270 C.ar   20  TYR20      -0.0198
     24  CD1       33.8080   46.0300   11.4370 C.ar   20  TYR20      -0.0009
     25  CD2       35.3360   46.8670   13.0950 C.ar   20  TYR20      -0.0009
     26  CE1       32.9300   47.0840   11.7040 C.ar   20  TYR20       0.0417
     27  CE2       34.4670   47.9280   13.3680 C.ar   20  TYR20       0.0417
     28  CZ        33.2670   48.0280   12.6690 C.ar   20  TYR20       0.1957
     29  OH        32.4130   49.0720   12.9320 O.3    20  TYR20      -0.2866
     30  N         40.6740   40.4420    7.5290 N.3    36  LEU36      -0.1245
     31  CA        39.2550   40.7370    7.7340 C.3    36  LEU36       0.1561
     32  C         38.5450   39.6540    8.5470 C.2    36  LEU36       0.2260
     33  O         38.5910   38.4730    8.1850 O.2    36  LEU36      -0.2867
     34  CB        38.5490   40.8700    6.3840 C.3    36  LEU36       0.0270
     35  CG        37.0540   41.2020    6.4650 C.3    36  LEU36       0.0019
     36  CD1       36.8990   42.6760    6.7600 C.3    36  LEU36       0.0001
     37  CD2       36.3620   40.8500    5.1580 C.3    36  LEU36       0.0001
     38  N         35.5960   37.7020    9.2830 N.3    38  ASP38      -0.1239
     39  CA        34.4000   37.3840    8.5170 C.3    38  ASP38       0.1674
     40  C         33.7160   36.1010    8.9850 C.2    38  ASP38       0.2266
     41  O         34.2530   35.0160    8.7980 O.2    38  ASP38      -0.2867
     42  CB        34.8110   37.2400    7.0470 C.3    38  ASP38       0.1410
     43  CG        33.6370   37.2450    6.1050 C.2    38  ASP38       0.3668
     44  OD1       33.5160   38.2200    5.3370 O.co2  38  ASP38      -0.2456
     45  OD2       32.8420   36.2810    6.1270 O.co2  38  ASP38      -0.2456
     46  N         30.8850   35.0390    7.7910 N.3    40  GLY40      -0.1210
     47  CA        30.0190   34.5710    6.7190 C.3    40  GLY40       0.1956
     48  C         30.6160   33.5440    5.7710 C.2    40  GLY40       0.2612
     49  O         29.9240   33.0640    4.8760 O.2    40  GLY40      -0.2717
     50  N         31.8940   33.2130    5.9500 N.am   41  SER41      -0.1952
     51  CA        32.5560   32.2200    5.1120 C.3    41  SER41       0.1924
     52  C         33.4910   31.3430    5.9520 C.2    41  SER41       0.2314
     53  O         33.5960   31.5250    7.1530 O.2    41  SER41      -0.2863
     54  CB        33.3100   32.8990    3.9590 C.3    41  SER41       0.2116
     55  OG        34.1410   33.9410    4.4260 O.3    41  SER41      -0.2180
     56  N         31.8010   35.3080   -3.9150 N.3    77  TYR77      -0.1227
     57  CA        30.8420   35.7290   -2.8930 C.3    77  TYR77       0.1736
     58  C         29.7800   36.5660   -3.5900 C.2    77  TYR77       0.2596
     59  O         29.8380   36.7680   -4.7900 O.2    77  TYR77      -0.2718
     60  CB        31.5060   36.6200   -1.8420 C.3    77  TYR77       0.0548
     61  CG        32.7220   36.0410   -1.1660 C.ar   77  TYR77      -0.0200
     62  CD1       32.6100   34.9940   -0.2540 C.ar   77  TYR77      -0.0009
     63  CD2       33.9860   36.5570   -1.4290 C.ar   77  TYR77      -0.0009
     64  CE1       33.7380   34.4800    0.3810 C.ar   77  TYR77       0.0417
     65  CE2       35.1110   36.0540   -0.8060 C.ar   77  TYR77       0.0417
     66  CZ        34.9860   35.0200    0.0950 C.ar   77  TYR77       0.1957
     67  OH        36.1120   34.5260    0.6950 O.3    77  TYR77      -0.2866
     68  N         28.8180   37.0640   -2.8210 N.am   78  THR78      -0.1939
     69  CA        27.7900   37.9210   -3.3810 C.3    78  THR78       0.2028
     70  C         28.5140   39.1130   -3.9900 C.2    78  THR78       0.2642
     71  O         28.1460   39.6030   -5.0470 O.2    78  THR78      -0.2714
     72  CB        26.8320   38.4230   -2.2940 C.3    78  THR78       0.1808
     73  OG1       26.1300   37.3100   -1.7330 O.3    78  THR78      -0.2208
     74  CG2       25.8310   39.4160   -2.8800 C.3    78  THR78       0.0379
     75  N         29.5580   39.5620   -3.2990 N.am   79  GLN79      -0.1976
     76  CA        30.3730   40.6820   -3.7410 C.3    79  GLN79       0.1601
     77  C         31.8360   40.2490   -3.8400 C.2    79  GLN79       0.2287
     78  O         32.4450   39.8660   -2.8410 O.2    79  GLN79      -0.2864
     79  CB        30.2630   41.8390   -2.7470 C.3    79  GLN79       0.0394
     80  CG        31.1220   43.0460   -3.1100 C.3    79  GLN79       0.0908
     81  CD        31.0510   44.1440   -2.0700 C.2    79  GLN79       0.2608
     82  OE1       31.9840   44.3490   -1.2920 O.2    79  GLN79      -0.2717
     83  NE2       29.9350   44.8530   -2.0450 N.am   79  GLN79      -0.0878
     84  N         37.1790   42.2160   -4.7140 N.3   114  PHE114     -0.1241
     85  CA        37.1970   41.6260   -3.3810 C.3   114  PHE114      0.1605
     86  C         37.8700   42.6120   -2.4310 C.2   114  PHE114      0.2264
     87  O         37.2310   43.1410   -1.5270 O.2   114  PHE114     -0.2867
     88  CB        37.9600   40.2970   -3.3900 C.3   114  PHE114      0.0534
     89  CG        38.1130   39.6800   -2.0290 C.ar  114  PHE114     -0.0203
     90  CD1       36.9930   39.3660   -1.2620 C.ar  114  PHE114     -0.0042
     91  CD2       39.3770   39.4160   -1.5100 C.ar  114  PHE114     -0.0042
     92  CE1       37.1290   38.8020   -0.0070 C.ar  114  PHE114     -0.0003
     93  CE2       39.5250   38.8530   -0.2560 C.ar  114  PHE114     -0.0003
     94  CZ        38.3990   38.5430    0.5010 C.ar  114  PHE114     -0.0000
     95  N         39.3830   46.0200   -0.9870 N.3   116  ILE116     -0.1245
     96  CA        38.8010   47.3520   -1.0080 C.3   116  ILE116      0.1561
     97  C         39.8560   48.4360   -0.8220 C.2   116  ILE116      0.2260
     98  O         40.6050   48.4310    0.1490 O.2   116  ILE116     -0.2867
     99  CB        37.7240   47.4700    0.1030 C.3   116  ILE116      0.0252
    100  CG1       36.6110   46.4460   -0.1560 C.3   116  ILE116      0.0019
    101  CG2       37.1540   48.8870    0.1540 C.3   116  ILE116      0.0019
    102  CD1       35.5590   46.3600    0.9470 C.3   116  ILE116      0.0001
    103  N         43.0650   46.0680    4.8800 N.3   121  TRP121     -0.1241
    104  CA        43.1700   44.6370    5.1630 C.3   121  TRP121      0.1605
    105  C         43.6270   43.9330    3.8920 C.2   121  TRP121      0.2264
    106  O         43.3370   44.3800    2.7780 O.2   121  TRP121     -0.2867
    107  CB        41.8680   44.0230    5.7110 C.3   121  TRP121      0.0550
    108  CG        40.6020   44.3400    4.9930 C.ar  121  TRP121      0.0003
    109  CD1       39.7440   45.3640    5.2670 C.ar  121  TRP121      0.0946
    110  CD2       40.0080   43.5880    3.9280 C.ar  121  TRP121      0.0152
    111  NE1       38.6470   45.2930    4.4430 N.ar  121  TRP121     -0.2442
    112  CE2       38.7830   44.2140    3.6100 C.ar  121  TRP121      0.0810
    113  CE3       40.3900   42.4460    3.2130 C.ar  121  TRP121      0.0012
    114  CZ2       37.9340   43.7370    2.6060 C.ar  121  TRP121      0.0191
    115  CZ3       39.5460   41.9700    2.2120 C.ar  121  TRP121      0.0001
    116  CH2       38.3310   42.6180    1.9190 C.ar  121  TRP121      0.0015
    117  N         41.3290   37.4600    4.4580 N.3   124  ILE124     -0.1245
    118  CA        40.0430   37.2100    5.0870 C.3   124  ILE124      0.1561
    119  C         40.0910   35.9810    5.9900 C.2   124  ILE124      0.2260
    120  O         40.6710   34.9560    5.6310 O.2   124  ILE124     -0.2867
    121  CB        38.9400   37.0270    4.0200 C.3   124  ILE124      0.0252
    122  CG1       37.5810   36.8470    4.7010 C.3   124  ILE124      0.0019
    123  CG2       39.2790   35.8220    3.1070 C.3   124  ILE124      0.0019
    124  CD1       36.4160   36.8240    3.7380 C.3   124  ILE124      0.0001
    125  N         26.8150   37.8140    9.4320 N.3   222  ASP222     -0.1225
    126  CA        28.0620   37.9620    8.6800 C.3   222  ASP222      0.1805
    127  C         28.7510   39.2900    8.9720 C.2   222  ASP222      0.2598
    128  O         28.3550   40.3510    8.4490 O.2   222  ASP222     -0.2718
    129  CB        27.7970   37.8380    7.1740 C.3   222  ASP222      0.1424
    130  CG        29.0630   37.9800    6.3310 C.2   222  ASP222      0.3668
    131  OD1       30.1830   37.8770    6.8810 O.co2 222  ASP222     -0.2456
    132  OD2       28.9350   38.1810    5.1030 O.co2 222  ASP222     -0.2456
    133  N         29.7940   39.2270    9.7940 N.am  223  SER223     -0.1938
    134  CA        30.5510   40.4160   10.1670 C.3   223  SER223      0.2055
    135  C         31.2700   41.0360    8.9590 C.2   223  SER223      0.2644
    136  O         31.7270   42.1760    9.0240 O.2   223  SER223     -0.2714
    137  CB        31.5700   40.0570   11.2570 C.3   223  SER223      0.2130
    138  OG        32.4830   39.0780   10.7820 O.3   223  SER223     -0.2179
    139  N         31.3550   40.2830    7.8640 N.am  224  GLY224     -0.1939
    140  CA        32.0170   40.7670    6.6620 C.3   224  GLY224      0.2014
    141  C         31.0980   41.3670    5.6080 C.2   224  GLY224      0.2640
    142  O         31.5100   41.5940    4.4700 O.2   224  GLY224     -0.2714
    143  N         29.8430   41.6020    5.9830 N.am  225  THR225     -0.1936
    144  CA        28.8570   42.2060    5.0960 C.3   225  THR225      0.2028
    145  C         28.4700   43.5140    5.7780 C.2   225  THR225      0.2643
    146  O         28.1880   43.5430    6.9700 O.2   225  THR225     -0.2714
    147  CB        27.6200   41.3000    4.9280 C.3   225  THR225      0.1808
    148  OG1       27.9000   40.2980    3.9430 O.3   225  THR225     -0.2208
    149  CG2       26.3870   42.1220    4.4910 C.3   225  THR225      0.0379
    150  N         28.4680   44.5960    5.0140 N.am  226  THR226     -0.1936
    151  CA        28.1610   45.9090    5.5540 C.3   226  THR226      0.2028
    152  C         26.7490   46.1210    6.0920 C.2   226  THR226      0.2642
    153  O         26.5650   46.5180    7.2370 O.2   226  THR226     -0.2714
    154  CB        28.4270   47.0000    4.4960 C.3   226  THR226      0.1808
    155  OG1       29.7200   46.7900    3.9140 O.3   226  THR226     -0.2208
    156  CG2       28.3880   48.4120    5.1460 C.3   226  THR226      0.0379
    157  N         25.7550   45.8310    5.2650 N.am  227  ASN227     -0.1971
    158  CA        24.3640   46.0830    5.6160 C.3   227  ASN227      0.1688
    159  C         23.5360   45.0170    6.3120 C.2   227  ASN227      0.2292
    160  O         23.9880   43.9470    6.6400 O.2   227  ASN227     -0.2864
    161  CB        23.5840   46.4560    4.3520 C.3   227  ASN227      0.1181
    162  CG        24.2090   47.5900    3.5760 C.2   227  ASN227      0.2629
    163  OD1       25.0810   48.2770    4.0560 O.2   227  ASN227     -0.2716
    164  ND2       23.7280   47.7900    2.3560 N.am  227  ASN227     -0.0877
    165  N         20.8080   42.9910    5.2140 N.3   229  ARG229     -0.1245
    166  CA        20.2210   42.6130    3.9410 C.3   229  ARG229      0.1563
    167  C         18.9770   41.7830    4.2180 C.2   229  ARG229      0.2260
    168  O         18.9960   40.8770    5.0390 O.2   229  ARG229     -0.2867
    169  CB        21.2510   41.8460    3.1070 C.3   229  ARG229      0.0307
    170  CG        22.5950   42.5940    3.0110 C.3   229  ARG229      0.0489
    171  CD        23.5730   41.9250    2.0750 C.3   229  ARG229      0.2205
    172  NE        23.0450   41.8840    0.7190 N.pl3 229  ARG229     -0.0865
    173  CZ        23.0770   40.8110   -0.0650 C.cat 229  ARG229      0.5346
    174  NH1       23.6230   39.6850    0.3700 N.pl3 229  ARG229      0.1354
    175  NH2       22.5310   40.8550   -1.2730 N.pl3 229  ARG229      0.1354
    176  N         24.7500   54.7510    7.5640 N.3   301  ARG301     -0.1245
    177  CA        26.2070   54.8020    7.6360 C.3   301  ARG301      0.1563
    178  C         26.8870   56.0060    6.9970 C.2   301  ARG301      0.2260
    179  O         26.5460   56.4120    5.9010 O.2   301  ARG301     -0.2867
    180  CB        26.7850   53.5200    7.0370 C.3   301  ARG301      0.0307
    181  CG        26.2260   52.2670    7.6740 C.3   301  ARG301      0.0489
    182  CD        26.8010   51.0110    7.0530 C.3   301  ARG301      0.2205
    183  NE        27.6440   50.2990    8.0030 N.pl3 301  ARG301     -0.0865
    184  CZ        28.9330   50.5430    8.2090 C.cat 301  ARG301      0.5346
    185  NH1       29.5940   49.8370    9.1080 N.pl3 301  ARG301      0.1354
    186  NH2       29.5700   51.4670    7.5040 N.pl3 301  ARG301      0.1354
    187  N         24.3980   56.9770    3.9990 N.3   315  LYS315     -0.1245
    188  CA        23.7860   56.0290    3.0810 C.3   315  LYS315      0.1561
    189  C         22.8600   55.1120    3.8830 C.2   315  LYS315      0.2260
    190  O         23.2160   54.6600    4.9630 O.2   315  LYS315     -0.2867
    191  CB        24.8510   55.1820    2.3730 C.3   315  LYS315      0.0271
    192  CG        24.2490   54.0740    1.5090 C.3   315  LYS315      0.0035
    193  CD        25.2910   53.1340    0.9310 C.3   315  LYS315      0.0206
    194  CE        24.6180   51.9330    0.2730 C.3   315  LYS315      0.1093
    195  NZ        25.5850   50.9560   -0.3200 N.3   315  LYS315     -0.1314
    196  N         19.4190   46.9520    2.7160 N.3   319  SER319     -0.1217
    197  CA        19.2130   46.6590    1.3040 C.3   319  SER319      0.1889
    198  C         18.5990   45.2850    1.0790 C.2   319  SER319      0.2288
    199  O         18.4620   44.5060    2.0070 O.2   319  SER319     -0.2866
    200  CB        20.5480   46.7640    0.5660 C.3   319  SER319      0.2089
    201  OG        21.5430   46.0030    1.2240 O.3   319  SER319     -0.2183
    202  N         27.3300   44.2940    9.5900 N.3   329  ALA329     -0.1245
    203  CA        27.8020   45.3190   10.5170 C.3   329  ALA329      0.1562
    204  C         26.6940   46.2170   11.0700 C.2   329  ALA329      0.2260
    205  O         26.7650   46.6700   12.2160 O.2   329  ALA329     -0.2867
    206  CB        28.8590   46.1660    9.8420 C.3   329  ALA329      0.0290
@<TRIPOS>BOND
     1    71    70    2
     2    59    58    2
     3    84    85    1
     4    70    69    1
     5    70    75   am
     6    56    57    1
     7    77    76    1
     8    77    78    2
     9    76    75    1
    10    76    79    1
    11    58    57    1
    12    58    68   am
    13    88    85    1
    14    88    89    1
    15    69    68    1
    16    69    72    1
    17    85    86    1
    18    80    79    1
    19    80    81    1
    20    57    60    1
    21    74    72    1
    22    86    87    2
    23    72    73    1
    24    81    83   am
    25    81    82    2
    26    89    91   ar
    27    89    90   ar
    28    60    61    1
    29    91    93   ar
    30    63    61   ar
    31    63    65   ar
    32   175   173    1
    33    90    92   ar
    34    61    62   ar
    35    96    95    1
    36    96    97    1
    37    96    99    1
    38    97    98    2
    39    65    66   ar
    40   195   194    1
    41    93    94   ar
    42    62    64   ar
    43   100    99    1
    44   100   102    1
    45   173   174    1
    46   173   172    2
    47    92    94   ar
    48    66    64   ar
    49    66    67    1
    50    99   101    1
    51   194   193    1
    52   200   201    1
    53   200   197    1
    54   172   171    1
    55   193   192    1
    56   198   197    1
    57   198   199    2
    58   197   196    1
    59   192   191    1
    60    13    11   am
    61   116   115   ar
    62   116   114   ar
    63   171   170    1
    64   115   113   ar
    65   164   162   am
    66   191   188    1
    67   114   112   ar
    68   106   105    2
    69    11    10    1
    70    11    12    2
    71   170   169    1
    72   188   189    1
    73   188   187    1
    74   169   166    1
    75   123   121    1
    76   113   110   ar
    77    10     9    1
    78   162   163    2
    79   162   161    1
    80   112   110   ar
    81   112   111   ar
    82   124   122    1
    83   189   190    2
    84   105   104    1
    85   155   154    1
    86   110   108   ar
    87   166   167    1
    88   166   165    1
    89   148   147    1
    90    54    55    1
    91    54    51    1
    92   121   122    1
    93   121   118    1
    94   167   168    2
    95     9     6    1
    96   161   158    1
    97   111   109   ar
    98   117   118    1
    99   142   141    2
   100   149   147    1
   101   154   156    1
   102   154   151    1
   103     8     7    2
   104    49    48    2
   105   103   104    1
   106   147   144    1
   107   108   109   ar
   108   108   107    1
   109   150   151    1
   110   150   145   am
   111     6     7    1
   112     6     5    1
   113   118   119    1
   114   144   145    1
   115   144   143    1
   116   132   130   ar
   117    51    50    1
   118    51    52    1
   119    37    35    1
   120   104   107    1
   121     4     3    2
   122   157   158    1
   123   157   152   am
   124    44    43   ar
   125     7    14   am
   126   151   152    1
   127   141   143   am
   128   141   140    1
   129   158   159    1
   130   120   119    2
   131    48    50   am
   132    48    47    1
   133   145   146    2
   134   179   178    2
   135    52    53    2
   136     3     5   am
   137     3     2    1
   138   152   153    2
   139    43    45   ar
   140    43    42    1
   141   159   160    2
   142   130   131   ar
   143   130   129    1
   144    34    35    1
   145    34    31    1
   146    35    36    1
   147   140   139    1
   148    14    15    1
   149    47    46    1
   150   178   177    1
   151   180   177    1
   152   180   181    1
   153    42    39    1
   154   182   181    1
   155   182   183    1
   156   129   126    1
   157     2     1    1
   158    15    16    1
   159   186   184    1
   160    30    31    1
   161   176   177    1
   162    31    32    1
   163   139   135   am
   164   183   184    2
   165    33    32    2
   166   184   185    1
   167   128   127    2
   168    16    17    2
   169    16    18   am
   170    39    40    1
   171    39    38    1
   172   126   127    1
   173   126   125    1
   174    41    40    2
   175   135   136    2
   176   135   134    1
   177   127   133   am
   178    18    19    1
   179   202   203    1
   180   133   134    1
   181   206   203    1
   182    21    20    2
   183   134   137    1
   184    20    19    1
   185   203   204    1
   186    19    22    1
   187   138   137    1
   188   204   205    2
   189    24    26   ar
   190    24    23   ar
   191    26    28   ar
   192    22    23    1
   193    23    25   ar
   194    28    29    1
   195    28    27   ar
   196    25    27   ar
