@<TRIPOS>MOLECULE
tmp/2is4C00.pdb
 161 151 0 0 0
SMALL
GASTEIGER

@<TRIPOS>ATOM
      1  N        105.5190    7.6650  -50.1150 N.3     9  SER9       -0.1202
      2  CA       105.4240    6.8600  -48.9150 C.3     9  SER9        0.2020
      3  C        105.4400    5.3590  -49.1710 C.2     9  SER9        0.2618
      4  O        106.2120    4.6320  -48.5590 O.2     9  SER9       -0.2717
      5  CB       104.1470    7.2360  -48.1770 C.3     9  SER9        0.2103
      6  OG       103.2700    7.9270  -49.0560 O.3     9  SER9       -0.2182
      7  N        104.5920    4.9140  -50.0920 N.am   10  LEU10      -0.1979
      8  CA       104.4270    3.5000  -50.4180 C.3    10  LEU10       0.1596
      9  C        105.6590    2.6420  -50.6920 C.2    10  LEU10       0.2287
     10  O        106.7090    3.1370  -51.1150 O.2    10  LEU10      -0.2864
     11  CB       103.4810    3.3660  -51.6000 C.3    10  LEU10       0.0297
     12  CG       102.3300    4.3610  -51.6040 C.3    10  LEU10       0.0022
     13  CD1      101.4160    4.0690  -52.7860 C.3    10  LEU10       0.0001
     14  CD2      101.5700    4.2630  -50.3020 C.3    10  LEU10       0.0001
     15  N        102.6340   -1.8730  -52.1840 N.3    14  GLN14      -0.1245
     16  CA       101.6140   -0.8620  -52.0300 C.3    14  GLN14       0.1566
     17  C        101.4990   -0.1280  -53.3560 C.2    14  GLN14       0.2260
     18  O        100.3950    0.0620  -53.8680 O.2    14  GLN14      -0.2867
     19  CB       101.9560    0.0900  -50.8820 C.3    14  GLN14       0.0367
     20  CG       101.7590   -0.5400  -49.5110 C.3    14  GLN14       0.0905
     21  CD       102.2520    0.3560  -48.3800 C.2    14  GLN14       0.2608
     22  OE1      103.2770    1.0260  -48.5110 O.2    14  GLN14      -0.2717
     23  NE2      101.5370    0.3540  -47.2610 N.am   14  GLN14      -0.0878
     24  N         97.4300   -7.1500  -40.2570 N.3    31  ALA31      -0.1231
     25  CA        97.1230   -5.8630  -39.6560 C.3    31  ALA31       0.1694
     26  C         98.2390   -4.8420  -39.7000 C.2    31  ALA31       0.2593
     27  O         99.4150   -5.1770  -39.6180 O.2    31  ALA31      -0.2718
     28  CB        96.6820   -6.0700  -38.2310 C.3    31  ALA31       0.0304
     29  N         97.8520   -3.5810  -39.8270 N.am   32  GLY32      -0.1942
     30  CA        98.8170   -2.5010  -39.8630 C.3    32  GLY32       0.2014
     31  C         99.8290   -2.5420  -40.9920 C.2    32  GLY32       0.2640
     32  O        100.9530   -2.0740  -40.8240 O.2    32  GLY32      -0.2714
     33  N         99.4430   -3.0840  -42.1430 N.am   33  SER33      -0.1935
     34  CA       100.3590   -3.1540  -43.2740 C.3    33  SER33       0.2055
     35  C        100.0470   -2.1090  -44.3440 C.2    33  SER33       0.2644
     36  O        100.6460   -2.0990  -45.4120 O.2    33  SER33      -0.2714
     37  CB       100.3620   -4.5640  -43.8740 C.3    33  SER33       0.2130
     38  OG        99.0490   -5.0060  -44.1610 O.3    33  SER33      -0.2179
     39  N         99.1010   -1.2270  -44.0530 N.am   34  GLY34      -0.1939
     40  CA        98.7880   -0.1670  -44.9920 C.3    34  GLY34       0.2014
     41  C         97.6520   -0.3700  -45.9600 C.2    34  GLY34       0.2639
     42  O         97.5380    0.3930  -46.9060 O.2    34  GLY34      -0.2714
     43  N         96.8150   -1.3800  -45.7420 N.am   35  LYS35      -0.1963
     44  CA        95.6940   -1.6330  -46.6360 C.3    35  LYS35       0.1728
     45  C         94.8380   -0.3880  -46.7410 C.2    35  LYS35       0.2617
     46  O         94.4770    0.0470  -47.8360 O.2    35  LYS35      -0.2715
     47  CB        94.8250   -2.7840  -46.1200 C.3    35  LYS35       0.0311
     48  CG        95.4700   -4.1550  -46.1700 C.3    35  LYS35       0.0038
     49  CD        94.5380   -5.2140  -45.6070 C.3    35  LYS35       0.0206
     50  CE        94.2830   -5.0010  -44.1210 C.3    35  LYS35       0.1093
     51  NZ        95.5370   -5.0570  -43.3290 N.3    35  LYS35      -0.1314
     52  N         94.5180    0.1880  -45.5930 N.am   36  THR36      -0.1937
     53  CA        93.6920    1.3790  -45.5430 C.3    36  THR36       0.2028
     54  C         94.4220    2.5370  -46.1950 C.2    36  THR36       0.2642
     55  O         93.8020    3.4410  -46.7500 O.2    36  THR36      -0.2714
     56  CB        93.3310    1.7170  -44.0810 C.3    36  THR36       0.1808
     57  OG1       92.6440    0.5980  -43.4960 O.3    36  THR36      -0.2208
     58  CG2       92.4390    2.9600  -44.0150 C.3    36  THR36       0.0379
     59  N         95.7480    2.5010  -46.1390 N.am   37  ARG37      -0.1977
     60  CA        96.5570    3.5490  -46.7410 C.3    37  ARG37       0.1597
     61  C         96.4540    3.3750  -48.2490 C.2    37  ARG37       0.2287
     62  O         96.2380    4.3310  -49.0020 O.2    37  ARG37      -0.2864
     63  CB        98.0060    3.3990  -46.3100 C.3    37  ARG37       0.0334
     64  CG        98.9610    4.3700  -46.9830 C.3    37  ARG37       0.0492
     65  CD        99.3400    5.4410  -46.0120 C.3    37  ARG37       0.2205
     66  NE       100.7600    5.7590  -46.0540 N.pl3  37  ARG37      -0.0865
     67  CZ       101.4160    6.3390  -45.0550 C.cat  37  ARG37       0.5346
     68  NH1      100.7780    6.6530  -43.9410 N.pl3  37  ARG37       0.1354
     69  NH2      102.7050    6.6210  -45.1760 N.pl3  37  ARG37       0.1354
     70  N         91.3320   10.0150  -43.3010 N.3    73  ARG73      -0.1245
     71  CA        92.5490    9.9430  -44.0960 C.3    73  ARG73       0.1563
     72  C         92.3280   10.5270  -45.4870 C.2    73  ARG73       0.2260
     73  O         93.2240   11.1340  -46.0600 O.2    73  ARG73      -0.2867
     74  CB        93.0430    8.4980  -44.1990 C.3    73  ARG73       0.0307
     75  CG        93.3360    7.8360  -42.8650 C.3    73  ARG73       0.0489
     76  CD        94.3220    6.7100  -43.0550 C.3    73  ARG73       0.2205
     77  NE        94.2780    5.7680  -41.9480 N.pl3  73  ARG73      -0.0865
     78  CZ        94.9590    4.6280  -41.9070 C.cat  73  ARG73       0.5346
     79  NH1       95.7500    4.2800  -42.9090 N.pl3  73  ARG73       0.1354
     80  NH2       94.8250    3.8180  -40.8660 N.pl3  73  ARG73       0.1354
     81  N         86.6990   -1.4050  -47.3540 N.3   217  ASP217     -0.1225
     82  CA        87.7470   -1.6340  -46.3600 C.3   217  ASP217      0.1805
     83  C         87.2420   -2.7230  -45.4420 C.2   217  ASP217      0.2597
     84  O         86.0360   -2.9040  -45.3090 O.2   217  ASP217     -0.2718
     85  CB        88.0210   -0.3740  -45.5160 C.3   217  ASP217      0.1424
     86  CG        89.4520   -0.3390  -44.9460 C.2   217  ASP217      0.3668
     87  OD1       90.0540   -1.4200  -44.7580 O.co2 217  ASP217     -0.2456
     88  OD2       89.9780    0.7670  -44.6760 O.co2 217  ASP217     -0.2456
     89  N         88.1630   -3.4510  -44.8160 N.am  218  GLU218     -0.1979
     90  CA        87.8070   -4.5080  -43.8730 C.3   218  GLU218      0.1602
     91  C         86.8110   -5.4410  -44.5200 C.2   218  GLU218      0.2287
     92  O         85.7780   -5.7710  -43.9240 O.2   218  GLU218     -0.2864
     93  CB        87.1740   -3.8860  -42.6290 C.3   218  GLU218      0.0415
     94  CG        88.0540   -2.8880  -41.8920 C.3   218  GLU218      0.1163
     95  CD        89.1110   -3.5720  -41.0430 C.2   218  GLU218      0.3649
     96  OE1       88.8400   -4.7150  -40.6050 O.co2 218  GLU218     -0.2457
     97  OE2       90.1910   -2.9740  -40.8020 O.co2 218  GLU218     -0.2457
     98  N         91.3230  -11.4250  -39.3760 N.3   248  GLN248     -0.1245
     99  CA        90.5630  -10.4950  -38.5620 C.3   248  GLN248      0.1566
    100  C         89.0740  -10.6590  -38.8010 C.2   248  GLN248      0.2260
    101  O         88.3010   -9.7010  -38.6860 O.2   248  GLN248     -0.2867
    102  CB        90.9870   -9.0620  -38.8680 C.3   248  GLN248      0.0367
    103  CG        92.3810   -8.7310  -38.4060 C.3   248  GLN248      0.0905
    104  CD        92.7930   -7.3390  -38.8080 C.2   248  GLN248      0.2608
    105  OE1       92.1090   -6.3690  -38.4890 O.2   248  GLN248     -0.2717
    106  NE2       93.9190   -7.2270  -39.5130 N.am  248  GLN248     -0.0878
    107  N        103.8270   -1.3960  -40.5040 N.3   280  TYR280     -0.1227
    108  CA       104.3460   -0.0740  -40.1510 C.3   280  TYR280      0.1736
    109  C        103.7850    0.4730  -38.8360 C.2   280  TYR280      0.2595
    110  O        104.1990    1.5320  -38.3760 O.2   280  TYR280     -0.2718
    111  CB       103.9970    0.9430  -41.2400 C.3   280  TYR280      0.0548
    112  CG       104.6580    0.7120  -42.5780 C.ar  280  TYR280     -0.0200
    113  CD1      104.1400   -0.2060  -43.4850 C.ar  280  TYR280     -0.0009
    114  CD2      105.8210    1.4010  -42.9260 C.ar  280  TYR280     -0.0009
    115  CE1      104.7680   -0.4270  -44.7070 C.ar  280  TYR280      0.0417
    116  CE2      106.4540    1.1830  -44.1230 C.ar  280  TYR280      0.0417
    117  CZ       105.9290    0.2710  -45.0170 C.ar  280  TYR280      0.1957
    118  OH       106.5650    0.0560  -46.2250 O.3   280  TYR280     -0.2866
    119  N        102.8500   -0.2460  -38.2260 N.am  281  ARG281     -0.1980
    120  CA       102.1950    0.2260  -37.0140 C.3   281  ARG281      0.1597
    121  C        102.8360   -0.0880  -35.6680 C.2   281  ARG281      0.2287
    122  O        103.0970    0.8030  -34.8690 O.2   281  ARG281     -0.2864
    123  CB       100.7470   -0.2900  -36.9990 C.3   281  ARG281      0.0334
    124  CG        99.8590    0.2710  -35.8780 C.3   281  ARG281      0.0492
    125  CD        98.5060   -0.4360  -35.8390 C.3   281  ARG281      0.2205
    126  NE        97.7570   -0.2090  -37.0620 N.pl3 281  ARG281     -0.0865
    127  CZ        96.8850   -1.0620  -37.5860 C.cat 281  ARG281      0.5346
    128  NH1       96.6390   -2.2240  -37.0030 N.pl3 281  ARG281      0.1354
    129  NH2       96.2530   -0.7490  -38.7060 N.pl3 281  ARG281      0.1354
    130  N         90.5340   -1.5640  -37.1550 N.3   548  GLY548     -0.1225
    131  CA        90.7030   -0.5170  -38.1400 C.3   548  GLY548      0.1811
    132  C         91.5050    0.6190  -37.5400 C.2   548  GLY548      0.2280
    133  O         92.2610    1.2890  -38.2530 O.2   548  GLY548     -0.2866
    134  N         94.0880    2.6070  -34.4600 N.3   550  GLU550     -0.1245
    135  CA        95.4090    2.4320  -33.8610 C.3   550  GLU550      0.1567
    136  C         95.6730    3.4640  -32.7710 C.2   550  GLU550      0.2260
    137  O         95.1590    4.5800  -32.8250 O.2   550  GLU550     -0.2867
    138  CB        96.4980    2.5110  -34.9230 C.3   550  GLU550      0.0388
    139  CG        96.5860    3.8360  -35.6480 C.3   550  GLU550      0.1160
    140  CD        97.5260    3.7740  -36.8440 C.2   550  GLU550      0.3649
    141  OE1       97.7830    4.8290  -37.4540 O.co2 550  GLU550     -0.2457
    142  OE2       98.0020    2.6680  -37.1730 O.co2 550  GLU550     -0.2457
    143  N         96.4320   -3.3410  -32.2940 N.3   589  ARG589     -0.1245
    144  CA        96.0100   -1.9360  -32.3470 C.3   589  ARG589      0.1563
    145  C         97.1130   -1.1140  -31.6890 C.2   589  ARG589      0.2260
    146  O         97.2130    0.0820  -31.9100 O.2   589  ARG589     -0.2867
    147  CB        94.7210   -1.6530  -31.5640 C.3   589  ARG589      0.0307
    148  CG        93.6560   -2.7230  -31.5680 C.3   589  ARG589      0.0489
    149  CD        93.4750   -3.3780  -32.9040 C.3   589  ARG589      0.2205
    150  NE        93.2270   -2.4460  -33.9860 N.pl3 589  ARG589     -0.0865
    151  CZ        93.3180   -2.7860  -35.2640 C.cat 589  ARG589      0.5346
    152  NH1       93.6450   -4.0310  -35.5970 N.pl3 589  ARG589      0.1354
    153  NH2       93.0980   -1.8830  -36.2070 N.pl3 589  ARG589      0.1354
    154  N        100.5660    0.5810  -30.9220 N.3   591  MET591     -0.1245
    155  CA       101.6630    1.0870  -31.7160 C.3   591  MET591      0.1570
    156  C        102.9610    1.0620  -30.9350 C.2   591  MET591      0.2261
    157  O        103.9610    0.5190  -31.3950 O.2   591  MET591     -0.2867
    158  CB       101.3590    2.5090  -32.1670 C.3   591  MET591      0.0387
    159  CG       100.1700    2.6060  -33.0940 C.3   591  MET591      0.0595
    160  SD        99.6890    4.3210  -33.4070 S.3   591  MET591     -0.1393
    161  CE       100.8140    4.7250  -34.7060 C.3   591  MET591      0.0692
@<TRIPOS>BOND
     1    18    17    2
     2    17    16    1
     3    13    12    1
     4    15    16    1
     5    16    19    1
     6    12    11    1
     7    12    14    1
     8    11     8    1
     9    10     9    2
    10    19    20    1
    11     9     8    1
    12     8     7    1
    13     1     2    1
    14     7     3   am
    15    20    21    1
    16     3     2    1
    17     3     4    2
    18     6     5    1
    19    62    61    2
    20     2     5    1
    21    22    21    2
    22    21    23   am
    23    61    60    1
    24    46    45    2
    25    81    82    1
    26    64    63    1
    27    64    65    1
    28    42    41    2
    29    55    54    2
    30    60    63    1
    31    60    59    1
    32    45    44    1
    33    45    52   am
    34    44    47    1
    35    44    43    1
    36    82    85    1
    37    82    83    1
    38   118   117    1
    39    54    59   am
    40    54    53    1
    41    48    47    1
    42    48    49    1
    43    73    72    2
    44    66    65    1
    45    66    67    2
    46    41    43   am
    47    41    40    1
    48    49    50    1
    49    52    53    1
    50    53    56    1
    51    85    86    1
    52    72    71    1
    53    83    84    2
    54    83    89   am
    55    36    35    2
    56    69    67    1
    57    67    68    1
    58   117   115   ar
    59   117   116   ar
    60    40    39    1
    61    86    87   ar
    62    86    88   ar
    63    89    90    1
    64   115   113   ar
    65    91    92    2
    66    91    90    1
    67    35    39   am
    68    35    34    1
    69    74    71    1
    70    74    75    1
    71    38    37    1
    72   116   114   ar
    73    50    51    1
    74    71    70    1
    75    56    58    1
    76    56    57    1
    77    37    34    1
    78    90    93    1
    79   113   112   ar
    80    34    33    1
    81    76    75    1
    82    76    77    1
    83   114   112   ar
    84    79    78    1
    85    93    94    1
    86   112   111    1
    87    33    31   am
    88    77    78    2
    89    78    80    1
    90    94    95    1
    91   111   108    1
    92    95    97   ar
    93    95    96   ar
    94    31    32    2
    95    31    30    1
    96   107   108    1
    97    24    25    1
    98   108   109    1
    99    30    29    1
   100    29    26   am
   101    26    25    1
   102    26    27    2
   103    25    28    1
   104   106   104   am
   105    98    99    1
   106   102    99    1
   107   102   103    1
   108   109   110    2
   109   109   119   am
   110   104   105    2
   111   104   103    1
   112   100   101    2
   113   100    99    1
   114   129   127    1
   115   133   132    2
   116   119   120    1
   117   131   132    1
   118   131   130    1
   119   127   126    2
   120   127   128    1
   121   141   140   ar
   122   142   140   ar
   123   126   125    1
   124   120   123    1
   125   120   121    1
   126   123   124    1
   127   140   139    1
   128   153   151    1
   129   124   125    1
   130   121   122    2
   131   139   138    1
   132   152   151    1
   133   151   150    2
   134   138   135    1
   135   161   160    1
   136   134   135    1
   137   150   149    1
   138   135   136    1
   139   160   159    1
   140   159   158    1
   141   149   148    1
   142   137   136    2
   143   144   143    1
   144   144   145    1
   145   144   147    1
   146   158   155    1
   147   146   145    2
   148   155   156    1
   149   155   154    1
   150   148   147    1
   151   157   156    2
