@<TRIPOS>MOLECULE
tmp/2is6C00.pdb
 161 151 0 0 0
SMALL
GASTEIGER

@<TRIPOS>ATOM
      1  N        -11.6870   12.2510   39.6630 N.3     9  SER9       -0.1202
      2  CA       -12.1490   11.9060   38.3190 C.3     9  SER9        0.2020
      3  C        -12.4730   10.4310   38.0920 C.2     9  SER9        0.2618
      4  O        -13.3070   10.0940   37.2480 O.2     9  SER9       -0.2717
      5  CB       -11.1060   12.3390   37.2850 C.3     9  SER9        0.2103
      6  OG        -9.9130   11.5760   37.4070 O.3     9  SER9       -0.2182
      7  N        -11.8140    9.5630   38.8510 N.am   10  LEU10      -0.1979
      8  CA       -11.9750    8.1220   38.7070 C.3    10  LEU10       0.1596
      9  C        -13.3960    7.5820   38.8190 C.2    10  LEU10       0.2287
     10  O        -14.2060    8.0790   39.6070 O.2    10  LEU10      -0.2864
     11  CB       -11.0860    7.4110   39.7230 C.3    10  LEU10       0.0297
     12  CG        -9.6580    7.9490   39.8420 C.3    10  LEU10       0.0022
     13  CD1       -8.8870    7.1030   40.8420 C.3    10  LEU10       0.0001
     14  CD2       -8.9690    7.9270   38.4820 C.3    10  LEU10       0.0001
     15  N        -12.0180    2.2130   38.3710 N.3    14  GLN14      -0.1245
     16  CA       -10.7310    2.8700   38.5070 C.3    14  GLN14       0.1566
     17  C        -10.4200    3.1150   39.9920 C.2    14  GLN14       0.2260
     18  O         -9.3050    2.8470   40.4490 O.2    14  GLN14      -0.2867
     19  CB       -10.7250    4.1940   37.7360 C.3    14  GLN14       0.0367
     20  CG       -10.9660    4.0550   36.2300 C.3    14  GLN14       0.0905
     21  CD       -10.8250    5.3840   35.5020 C.2    14  GLN14       0.2608
     22  OE1      -11.4600    6.3730   35.8650 O.2    14  GLN14      -0.2717
     23  NE2       -9.9880    5.4110   34.4730 N.am   14  GLN14      -0.0878
     24  N         -8.5960   -0.4790   25.1040 N.3    31  ALA31      -0.1231
     25  CA        -7.9020    0.7900   24.9180 C.3    31  ALA31       0.1694
     26  C         -8.6600    2.0080   25.4320 C.2    31  ALA31       0.2593
     27  O         -9.8880    2.0700   25.3570 O.2    31  ALA31      -0.2718
     28  CB        -7.5700    0.9780   23.4330 C.3    31  ALA31       0.0304
     29  N         -7.9060    2.9690   25.9600 N.am   32  GLY32      -0.1942
     30  CA        -8.4820    4.2150   26.4390 C.3    32  GLY32       0.2014
     31  C         -9.4880    4.1560   27.5700 C.2    32  GLY32       0.2640
     32  O        -10.3760    5.0150   27.6450 O.2    32  GLY32      -0.2714
     33  N         -9.3580    3.1630   28.4500 N.am   33  SER33      -0.1935
     34  CA       -10.2720    3.0320   29.5770 C.3    33  SER33       0.2055
     35  C         -9.6530    3.6160   30.8420 C.2    33  SER33       0.2644
     36  O        -10.2380    3.5470   31.9290 O.2    33  SER33      -0.2714
     37  CB       -10.6460    1.5620   29.7960 C.3    33  SER33       0.2130
     38  OG        -9.5010    0.7710   30.0260 O.3    33  SER33      -0.2179
     39  N         -8.4630    4.1890   30.6870 N.am   34  GLY34      -0.1939
     40  CA        -7.7820    4.8070   31.8070 C.3    34  GLY34       0.2014
     41  C         -6.8530    3.9250   32.6150 C.2    34  GLY34       0.2639
     42  O         -6.6210    4.2120   33.7930 O.2    34  GLY34      -0.2714
     43  N         -6.3190    2.8630   32.0090 N.am   35  LYS35      -0.1963
     44  CA        -5.3980    1.9690   32.7160 C.3    35  LYS35       0.1728
     45  C         -4.1260    2.7010   33.1390 C.2    35  LYS35       0.2617
     46  O         -3.6480    2.5420   34.2670 O.2    35  LYS35      -0.2715
     47  CB        -5.0020    0.7760   31.8390 C.3    35  LYS35       0.0311
     48  CG        -6.1130   -0.2150   31.5720 C.3    35  LYS35       0.0038
     49  CD        -5.6150   -1.3750   30.7180 C.3    35  LYS35       0.0206
     50  CE        -5.1950   -0.9100   29.3210 C.3    35  LYS35       0.1093
     51  NZ        -6.2940   -0.2080   28.5810 N.3    35  LYS35      -0.1314
     52  N         -3.5600    3.4900   32.2320 N.am   36  THR36      -0.1937
     53  CA        -2.3440    4.2180   32.5620 C.3    36  THR36       0.2028
     54  C         -2.6560    5.2700   33.6290 C.2    36  THR36       0.2642
     55  O         -1.8290    5.5520   34.5050 O.2    36  THR36      -0.2714
     56  CB        -1.7300    4.8600   31.3070 C.3    36  THR36       0.1808
     57  OG1       -1.2760    3.8220   30.4260 O.3    36  THR36      -0.2208
     58  CG2       -0.5530    5.7410   31.6740 C.3    36  THR36       0.0379
     59  N         -3.8590    5.8330   33.5620 N.am   37  ARG37      -0.1977
     60  CA        -4.2940    6.8250   34.5490 C.3    37  ARG37       0.1597
     61  C         -4.3010    6.1420   35.9260 C.2    37  ARG37       0.2287
     62  O         -3.8110    6.6910   36.9150 O.2    37  ARG37      -0.2864
     63  CB        -5.7090    7.2940   34.2180 C.3    37  ARG37       0.0334
     64  CG        -6.3260    8.2380   35.2340 C.3    37  ARG37       0.0492
     65  CD        -6.3460    9.6290   34.6620 C.3    37  ARG37       0.2205
     66  NE        -7.5850   10.3140   34.9780 N.pl3  37  ARG37      -0.0865
     67  CZ        -7.9860   11.4330   34.3910 C.cat  37  ARG37       0.5346
     68  NH1       -7.2440   11.9990   33.4450 N.pl3  37  ARG37       0.1354
     69  NH2       -9.1340   11.9810   34.7530 N.pl3  37  ARG37       0.1354
     70  N          2.9760   11.7040   32.8500 N.3    73  ARG73      -0.1245
     71  CA         1.8070   11.7980   33.7100 C.3    73  ARG73       0.1563
     72  C          2.1860   11.7820   35.1880 C.2    73  ARG73       0.2260
     73  O          1.5460   12.4460   35.9990 O.2    73  ARG73      -0.2867
     74  CB         0.8200   10.6740   33.4120 C.3    73  ARG73       0.0307
     75  CG         0.2760   10.6950   31.9880 C.3    73  ARG73       0.0489
     76  CD        -0.9980    9.8870   31.9090 C.3    73  ARG73       0.2205
     77  NE        -1.3160    9.4840   30.5440 N.pl3  73  ARG73      -0.0865
     78  CZ        -2.4030    8.7970   30.2130 C.cat  73  ARG73       0.5346
     79  NH1       -3.2710    8.4440   31.1530 N.pl3  73  ARG73       0.1354
     80  NH2       -2.6160    8.4560   28.9470 N.pl3  73  ARG73       0.1354
     81  N          3.2000   -1.2360   32.7950 N.3   220  ASP220     -0.1225
     82  CA         2.1540   -0.7570   31.8960 C.3   220  ASP220      0.1805
     83  C          2.2900   -1.5520   30.6030 C.2   220  ASP220      0.2597
     84  O          3.3710   -2.0490   30.3070 O.2   220  ASP220     -0.2718
     85  CB         2.3260    0.7390   31.6100 C.3   220  ASP220      0.1424
     86  CG         1.0210    1.4070   31.1940 C.2   220  ASP220      0.3668
     87  OD1        0.0790    0.6820   30.8080 O.co2 220  ASP220     -0.2456
     88  OD2        0.9310    2.6560   31.2430 O.co2 220  ASP220     -0.2456
     89  N          1.2060   -1.6780   29.8440 N.am  221  GLU221     -0.1979
     90  CA         1.2330   -2.4250   28.5810 C.3   221  GLU221      0.1602
     91  C          1.8360   -3.8050   28.8220 C.2   221  GLU221      0.2287
     92  O          2.6890   -4.2620   28.0620 O.2   221  GLU221     -0.2864
     93  CB         2.0800   -1.6820   27.5460 C.3   221  GLU221      0.0415
     94  CG         1.5960   -0.2640   27.2050 C.3   221  GLU221      0.1163
     95  CD         0.3020   -0.2490   26.3820 C.2   221  GLU221      0.3649
     96  OE1       -0.1100   -1.3220   25.8880 O.co2 221  GLU221     -0.2457
     97  OE2       -0.2960    0.8410   26.2180 O.co2 221  GLU221     -0.2457
     98  N         -4.4330   -5.9850   22.5730 N.3   251  GLN251     -0.1245
     99  CA        -3.3690   -5.1290   22.0510 C.3   251  GLN251      0.1566
    100  C         -2.0120   -5.8350   22.0770 C.2   251  GLN251      0.2260
    101  O         -0.9650   -5.2000   22.1760 O.2   251  GLN251     -0.2867
    102  CB        -3.3110   -3.8200   22.8440 C.3   251  GLN251      0.0367
    103  CG        -4.5730   -2.9880   22.7210 C.3   251  GLN251      0.0905
    104  CD        -4.4880   -1.6740   23.4740 C.2   251  GLN251      0.2608
    105  OE1       -3.5670   -0.8930   23.2670 O.2   251  GLN251     -0.2717
    106  NE2       -5.4550   -1.4260   24.3560 N.am  251  GLN251     -0.0878
    107  N        -12.7380    6.8000   27.6930 N.3   283  TYR283     -0.1227
    108  CA       -12.8020    8.2550   27.8000 C.3   283  TYR283      0.1736
    109  C        -12.0480    8.9340   26.6650 C.2   283  TYR283      0.2595
    110  O        -12.1410   10.1490   26.4870 O.2   283  TYR283     -0.2718
    111  CB       -12.1760    8.7450   29.1140 C.3   283  TYR283      0.0548
    112  CG       -12.9100    8.3600   30.3840 C.ar  283  TYR283     -0.0200
    113  CD1      -12.7080    7.1120   30.9790 C.ar  283  TYR283     -0.0009
    114  CD2      -13.7860    9.2540   31.0040 C.ar  283  TYR283     -0.0009
    115  CE1      -13.3540    6.7640   32.1610 C.ar  283  TYR283      0.0417
    116  CE2      -14.4430    8.9150   32.1900 C.ar  283  TYR283      0.0417
    117  CZ       -14.2200    7.6660   32.7630 C.ar  283  TYR283      0.1957
    118  OH       -14.8600    7.3150   33.9310 O.3   283  TYR283     -0.2866
    119  N        -11.2880    8.1630   25.9060 N.am  284  ARG284     -0.1980
    120  CA       -10.4990    8.7380   24.8290 C.3   284  ARG284      0.1597
    121  C        -11.2310    9.1250   23.5480 C.2   284  ARG284      0.2287
    122  O        -11.0770   10.2400   23.0580 O.2   284  ARG284     -0.2864
    123  CB        -9.3670    7.7810   24.4560 C.3   284  ARG284      0.0334
    124  CG        -8.4750    8.2830   23.3370 C.3   284  ARG284      0.0492
    125  CD        -7.4450    7.2400   22.9600 C.3   284  ARG284      0.2205
    126  NE        -6.5310    6.9540   24.0620 N.pl3 284  ARG284     -0.0865
    127  CZ        -6.0880    5.7380   24.3690 C.cat 284  ARG284      0.5346
    128  NH1       -6.4780    4.6860   23.6530 N.pl3 284  ARG284      0.1354
    129  NH2       -5.2660    5.5730   25.3940 N.pl3 284  ARG284      0.1354
    130  N         -0.2940    3.2480   23.3780 N.3   562  GLY562     -0.1225
    131  CA        -0.1450    3.9340   24.6450 C.3   562  GLY562      0.1811
    132  C         -0.3880    5.4220   24.4770 C.2   562  GLY562      0.2280
    133  O         -0.6820    6.1190   25.4450 O.2   562  GLY562     -0.2866
    134  N         -2.2170    8.8530   22.2680 N.3   564  GLU564     -0.1245
    135  CA        -3.5190    9.2670   21.7630 C.3   564  GLU564      0.1567
    136  C         -3.3680   10.6310   21.0820 C.2   564  GLU564      0.2260
    137  O         -2.4970   11.4180   21.4430 O.2   564  GLU564     -0.2867
    138  CB        -4.5080    9.3590   22.9210 C.3   564  GLU564      0.0388
    139  CG        -4.1390   10.4020   23.9680 C.3   564  GLU564      0.1160
    140  CD        -5.0660   10.3710   25.1720 C.2   564  GLU564      0.3649
    141  OE1       -5.0940   11.3720   25.9200 O.co2 564  GLU564     -0.2457
    142  OE2       -5.7630    9.3500   25.3770 O.co2 564  GLU564     -0.2457
    143  N         -6.2980    5.1170   18.7550 N.3   603  ARG603     -0.1245
    144  CA        -5.3640    6.2090   19.0480 C.3   603  ARG603      0.1563
    145  C         -6.0850    7.5420   18.8430 C.2   603  ARG603      0.2260
    146  O         -5.6960    8.5650   19.4120 O.2   603  ARG603     -0.2867
    147  CB        -4.1730    6.1880   18.0830 C.3   603  ARG603      0.0307
    148  CG        -3.0000    5.2880   18.4480 C.3   603  ARG603      0.0489
    149  CD        -3.4450    4.0520   19.1830 C.3   603  ARG603      0.2205
    150  NE        -2.9810    4.1280   20.5440 N.pl3 603  ARG603     -0.0865
    151  CZ        -3.4780    3.4570   21.5740 C.cat 603  ARG603      0.5346
    152  NH1       -4.4930    2.6150   21.4290 N.pl3 603  ARG603      0.1354
    153  NH2       -2.9410    3.6630   22.7690 N.pl3 603  ARG603      0.1354
    154  N         -8.7360   10.4650   19.1010 N.3   605  MET605     -0.1245
    155  CA        -9.6330   11.0380   20.0990 C.3   605  MET605      0.1570
    156  C        -10.8450   11.6730   19.4170 C.2   605  MET605      0.2261
    157  O        -11.9840   11.3640   19.7520 O.2   605  MET605     -0.2867
    158  CB        -8.8880   12.0730   20.9310 C.3   605  MET605      0.0387
    159  CG        -7.6890   11.4930   21.6660 C.3   605  MET605      0.0595
    160  SD        -6.6390   12.7740   22.3920 S.3   605  MET605     -0.1393
    161  CE        -7.6990   13.2770   23.7770 C.3   605  MET605      0.0692
@<TRIPOS>BOND
     1   147   148    1
     2   147   144    1
     3   148   149    1
     4   143   144    1
     5   145   144    1
     6   145   146    2
     7   154   155    1
     8   149   150    1
     9   156   157    2
    10   156   155    1
    11   155   158    1
    12   150   151    2
    13   158   159    1
    14   136   137    2
    15   136   135    1
    16   152   151    1
    17   151   153    1
    18   159   160    1
    19   135   134    1
    20   135   138    1
    21    99   100    1
    22    99    98    1
    23    99   102    1
    24   100   101    2
    25   160   161    1
    26   103   102    1
    27   103   104    1
    28   138   139    1
    29   125   124    1
    30   125   126    1
    31   122   121    2
    32   105   104    2
    33   124   123    1
    34   130   131    1
    35    28    25    1
    36   104   106   am
    37   121   120    1
    38   128   127    1
    39   139   140    1
    40   126   127    2
    41   127   129    1
    42   123   120    1
    43   132   131    1
    44   132   133    2
    45   120   119    1
    46    25    24    1
    47    25    26    1
    48   140   142   ar
    49   140   141   ar
    50    27    26    2
    51    26    29   am
    52    96    95   ar
    53   119   109   am
    54    29    30    1
    55    97    95   ar
    56    95    94    1
    57    30    31    1
    58   110   109    2
    59   109   108    1
    60    94    93    1
    61    93    90    1
    62    31    32    2
    63    31    33   am
    64   107   108    1
    65   108   111    1
    66    92    91    2
    67    33    34    1
    68    51    50    1
    69    90    91    1
    70    90    89    1
    71    80    78    1
    72   111   112    1
    73    50    49    1
    74    34    37    1
    75    34    35    1
    76    37    38    1
    77    89    83   am
    78    78    77    2
    79    78    79    1
    80    84    83    2
    81   112   113   ar
    82   112   114   ar
    83    57    56    1
    84    77    76    1
    85    83    82    1
    86    39    35   am
    87    39    40    1
    88    49    48    1
    89    87    86   ar
    90    35    36    2
    91   113   115   ar
    92   114   116   ar
    93    86    88   ar
    94    86    85    1
    95    56    58    1
    96    56    53    1
    97    48    47    1
    98    85    82    1
    99    40    41    1
   100    47    44    1
   101    82    81    1
   102    76    75    1
   103    75    74    1
   104    43    41   am
   105    43    44    1
   106   115   117   ar
   107   116   117   ar
   108    52    53    1
   109    52    45   am
   110    53    54    1
   111    41    42    2
   112    44    45    1
   113   117   118    1
   114    70    71    1
   115    45    46    2
   116    74    71    1
   117    68    67    1
   118    59    54   am
   119    59    60    1
   120    54    55    2
   121    71    72    1
   122    63    60    1
   123    63    64    1
   124    67    69    1
   125    67    66    2
   126    23    21   am
   127    60    61    1
   128    65    66    1
   129    65    64    1
   130    72    73    2
   131    21    22    2
   132    21    20    1
   133    61    62    2
   134    20    19    1
   135     4     3    2
   136     5     6    1
   137     5     2    1
   138    19    16    1
   139     3     2    1
   140     3     7   am
   141     2     1    1
   142    15    16    1
   143    14    12    1
   144    16    17    1
   145     8     9    1
   146     8     7    1
   147     8    11    1
   148     9    10    2
   149    11    12    1
   150    12    13    1
   151    17    18    2
