@<TRIPOS>MOLECULE
tmp/2is7A01.pdb
 122 125 0 0 0
SMALL
GASTEIGER

@<TRIPOS>ATOM
      1  N         16.0180   24.3570   70.9110 N.3    20  TRP20      -0.1241
      2  CA        16.4900   23.6540   69.7210 C.3    20  TRP20       0.1605
      3  C         17.5840   22.6630   70.1530 C.2    20  TRP20       0.2264
      4  O         18.5460   23.0450   70.8570 O.2    20  TRP20      -0.2867
      5  CB        17.0470   24.6290   68.6740 C.3    20  TRP20       0.0550
      6  CG        17.6770   23.9520   67.4540 C.ar   20  TRP20       0.0003
      7  CD1       17.2260   22.8380   66.7860 C.ar   20  TRP20       0.0946
      8  CD2       18.8640   24.3760   66.7700 C.ar   20  TRP20       0.0152
      9  NE1       18.0880   22.5280   65.7420 N.ar   20  TRP20      -0.2442
     10  CE2       19.0820   23.4730   65.7020 C.ar   20  TRP20       0.0810
     11  CE3       19.7580   25.4480   66.9500 C.ar   20  TRP20       0.0012
     12  CZ2       20.1660   23.6030   64.8240 C.ar   20  TRP20       0.0191
     13  CZ3       20.8450   25.5780   66.0730 C.ar   20  TRP20       0.0001
     14  CH2       21.0320   24.6520   65.0260 C.ar   20  TRP20       0.0015
     15  N          9.3970   22.8260   64.4520 N.3    47  VAL47      -0.1231
     16  CA        10.5010   22.0790   63.8110 C.3    47  VAL47       0.1692
     17  C         11.5100   21.4320   64.7910 C.2    47  VAL47       0.2592
     18  O         12.2980   20.5510   64.3940 O.2    47  VAL47      -0.2718
     19  CB        11.2070   22.9780   62.7400 C.3    47  VAL47       0.0266
     20  CG1       12.1120   24.0440   63.3730 C.3    47  VAL47       0.0020
     21  CG2       11.9790   22.1500   61.6850 C.3    47  VAL47       0.0020
     22  N         11.4660   21.8410   66.0630 N.am   48  TYR48      -0.1976
     23  CA        12.3770   21.2710   67.0550 C.3    48  TYR48       0.1639
     24  C         11.9080   19.8860   67.5400 C.2    48  TYR48       0.2290
     25  O         12.6480   19.1950   68.2460 O.2    48  TYR48      -0.2864
     26  CB        12.5460   22.2200   68.2370 C.3    48  TYR48       0.0560
     27  CG        13.0920   23.5940   67.8820 C.ar   48  TYR48      -0.0198
     28  CD1       13.7010   23.8490   66.6450 C.ar   48  TYR48      -0.0009
     29  CD2       13.0230   24.6400   68.8120 C.ar   48  TYR48      -0.0009
     30  CE1       14.2040   25.1210   66.3410 C.ar   48  TYR48       0.0417
     31  CE2       13.5220   25.9000   68.5270 C.ar   48  TYR48       0.0417
     32  CZ        14.1170   26.1470   67.3010 C.ar   48  TYR48       0.1957
     33  OH        14.6120   27.4180   67.0180 O.3    48  TYR48      -0.2866
     34  N          6.8130   27.1520   60.6770 N.3    79  TRP79      -0.1241
     35  CA         7.8560   26.5520   59.8410 C.3    79  TRP79       0.1605
     36  C          7.6430   26.8580   58.3470 C.2    79  TRP79       0.2264
     37  O          6.5440   27.2270   57.9360 O.2    79  TRP79      -0.2867
     38  CB         8.0050   25.0410   60.0740 C.3    79  TRP79       0.0550
     39  CG         9.1700   24.4750   59.2630 C.ar   79  TRP79       0.0003
     40  CD1        9.1000   23.5520   58.2380 C.ar   79  TRP79       0.0946
     41  CD2       10.5530   24.8480   59.3690 C.ar   79  TRP79       0.0152
     42  NE1       10.3570   23.3330   57.7180 N.ar   79  TRP79      -0.2442
     43  CE2       11.2620   24.1160   58.3940 C.ar   79  TRP79       0.0810
     44  CE3       11.2630   25.7280   60.2000 C.ar   79  TRP79       0.0012
     45  CZ2       12.6470   24.2200   58.2440 C.ar   79  TRP79       0.0191
     46  CZ3       12.6360   25.8410   60.0350 C.ar   79  TRP79       0.0001
     47  CH2       13.3170   25.0880   59.0670 C.ar   79  TRP79       0.0015
     48  N          9.4940   31.8050   60.9980 N.3   110  HIS110     -0.1226
     49  CA        10.7810   31.2070   61.3770 C.3   110  HIS110      0.1752
     50  C         11.9230   31.5780   60.4280 C.2   110  HIS110      0.2596
     51  O         13.0230   31.8920   60.8740 O.2   110  HIS110     -0.2718
     52  CB        10.6230   29.6830   61.5170 C.3   110  HIS110      0.0759
     53  CG        11.6590   29.0300   62.3920 C.ar  110  HIS110      0.0818
     54  ND1       11.4160   27.8610   63.0880 N.ar  110  HIS110     -0.2268
     55  CD2       12.9330   29.3780   62.6770 C.ar  110  HIS110      0.1154
     56  CE1       12.5060   27.5080   63.7450 C.ar  110  HIS110      0.1986
     57  NE2       13.4440   28.4130   63.5140 N.ar  110  HIS110     -0.2212
     58  N         11.6530   31.5330   59.1170 N.am  111  TRP111     -0.1976
     59  CA        12.5920   31.9220   58.0690 C.3   111  TRP111      0.1640
     60  C         11.7620   32.5760   56.9620 C.2   111  TRP111      0.2290
     61  O         10.6100   32.2010   56.7890 O.2   111  TRP111     -0.2864
     62  CB        13.2980   30.6780   57.4960 C.3   111  TRP111      0.0576
     63  CG        14.2830   30.0480   58.4410 C.ar  111  TRP111      0.0006
     64  CD1       14.0320   29.0730   59.3690 C.ar  111  TRP111      0.0946
     65  CD2       15.6820   30.3490   58.5470 C.ar  111  TRP111      0.0152
     66  NE1       15.1850   28.7600   60.0560 N.ar  111  TRP111     -0.2442
     67  CE2       16.2150   29.5150   59.5590 C.ar  111  TRP111      0.0810
     68  CE3       16.5380   31.2450   57.8800 C.ar  111  TRP111      0.0012
     69  CZ2       17.5640   29.5620   59.9380 C.ar  111  TRP111      0.0191
     70  CZ3       17.8770   31.2840   58.2430 C.ar  111  TRP111      0.0001
     71  CH2       18.3820   30.4460   59.2650 C.ar  111  TRP111      0.0015
     72  N         12.3490   19.7340   55.1200 N.3   122  PHE122     -0.1241
     73  CA        13.1480   20.2650   54.0240 C.3   122  PHE122      0.1605
     74  C         12.8820   19.4020   52.7910 C.2   122  PHE122      0.2264
     75  O         13.6190   18.4390   52.5500 O.2   122  PHE122     -0.2867
     76  CB        14.6440   20.2360   54.3630 C.3   122  PHE122      0.0534
     77  CG        15.0820   21.2830   55.3730 C.ar  122  PHE122     -0.0203
     78  CD1       15.6380   22.4940   54.9480 C.ar  122  PHE122     -0.0042
     79  CD2       14.9610   21.0480   56.7390 C.ar  122  PHE122     -0.0042
     80  CE1       16.0570   23.4560   55.8710 C.ar  122  PHE122     -0.0003
     81  CE2       15.3820   22.0060   57.6760 C.ar  122  PHE122     -0.0003
     82  CZ        15.9180   23.2140   57.2270 C.ar  122  PHE122     -0.0000
     83  N         19.7890   34.9650   69.0420 N.3   209  TYR209     -0.1241
     84  CA        19.8490   33.5130   69.1800 C.3   209  TYR209      0.1605
     85  C         21.2880   33.0200   69.0170 C.2   209  TYR209      0.2264
     86  O         22.1540   33.7760   68.5780 O.2   209  TYR209     -0.2867
     87  CB        18.8360   32.7850   68.2770 C.3   209  TYR209      0.0534
     88  CG        19.1150   32.6220   66.7670 C.ar  209  TYR209     -0.0201
     89  CD1       20.1880   31.8470   66.2830 C.ar  209  TYR209     -0.0009
     90  CD2       18.2430   33.1600   65.8340 C.ar  209  TYR209     -0.0009
     91  CE1       20.3750   31.6420   64.8880 C.ar  209  TYR209      0.0417
     92  CE2       18.4300   32.9710   64.4280 C.ar  209  TYR209      0.0417
     93  CZ        19.4900   32.2250   63.9760 C.ar  209  TYR209      0.1957
     94  OH        19.6390   32.0220   62.6120 O.3   209  TYR209     -0.2866
     95  N         26.3350   20.5170   62.5040 N.3   219  TRP219     -0.1241
     96  CA        27.3470   20.6570   61.4400 C.3   219  TRP219      0.1605
     97  C         28.6800   21.2240   61.9450 C.2   219  TRP219      0.2264
     98  O         29.5200   21.6500   61.1470 O.2   219  TRP219     -0.2867
     99  CB        26.8040   21.4990   60.2730 C.3   219  TRP219      0.0550
    100  CG        26.2830   22.8440   60.6990 C.ar  219  TRP219      0.0003
    101  CD1       26.9950   24.0020   60.8040 C.ar  219  TRP219      0.0946
    102  CD2       24.9450   23.1560   61.0950 C.ar  219  TRP219      0.0152
    103  NE1       26.1830   25.0240   61.2330 N.ar  219  TRP219     -0.2442
    104  CE2       24.9170   24.5320   61.4220 C.ar  219  TRP219      0.0810
    105  CE3       23.7600   22.4090   61.1960 C.ar  219  TRP219      0.0012
    106  CZ2       23.7500   25.1810   61.8490 C.ar  219  TRP219      0.0191
    107  CZ3       22.5960   23.0570   61.6200 C.ar  219  TRP219      0.0001
    108  CH2       22.6080   24.4310   61.9430 C.ar  219  TRP219      0.0015
    109  N         24.4120   29.7900   61.5270 N.3   298  CYS298     -0.1235
    110  CA        23.1810   29.2990   60.9270 C.3   298  CYS298      0.1677
    111  C         22.9650   29.9820   59.5900 C.2   298  CYS298      0.2270
    112  O         22.3150   31.0160   59.5150 O.2   298  CYS298     -0.2867
    113  CB        21.9900   29.5500   61.8580 C.3   298  CYS298      0.0956
    114  SG        22.0900   28.6140   63.3860 S.3   298  CYS298     -0.0801
    115  N         21.7440   28.4710   56.6400 N.3   300  LEU300     -0.1245
    116  CA        20.7160   27.8410   55.8050 C.3   300  LEU300      0.1561
    117  C         21.2670   27.5610   54.4060 C.2   300  LEU300      0.2260
    118  O         20.6870   28.0090   53.4120 O.2   300  LEU300     -0.2867
    119  CB        19.4890   28.7440   55.6770 C.3   300  LEU300      0.0270
    120  CG        18.0900   28.2350   56.0410 C.3   300  LEU300      0.0019
    121  CD1       17.1200   28.6100   54.9490 C.3   300  LEU300      0.0001
    122  CD2       18.0330   26.7550   56.3650 C.3   300  LEU300      0.0001
@<TRIPOS>BOND
     1    75    74    2
     2    74    73    1
     3   118   117    2
     4    73    76    1
     5    73    72    1
     6    76    77    1
     7   117   116    1
     8    78    77   ar
     9    78    80   ar
    10   121   120    1
    11    77    79   ar
    12   119   116    1
    13   119   120    1
    14   116   115    1
    15    80    82   ar
    16   120   122    1
    17    79    81   ar
    18    61    60    2
    19    60    59    1
    20    82    81   ar
    21    62    59    1
    22    62    63    1
    23    42    40   ar
    24    42    43   ar
    25    68    70   ar
    26    68    65   ar
    27    37    36    2
    28    59    58    1
    29    40    39   ar
    30    70    71   ar
    31    45    43   ar
    32    45    47   ar
    33    36    35    1
    34    43    41   ar
    35    63    65   ar
    36    63    64   ar
    37    65    67   ar
    38    47    46   ar
    39    58    50   am
    40    39    41   ar
    41    39    38    1
    42    71    69   ar
    43    41    44   ar
    44    64    66   ar
    45   112   111    2
    46    67    69   ar
    47    67    66   ar
    48   111   110    1
    49    35    38    1
    50    35    34    1
    51    46    44   ar
    52    99   100    1
    53    99    96    1
    54    50    51    2
    55    50    49    1
    56   100   101   ar
    57   100   102   ar
    58   101   103   ar
    59   110   109    1
    60   110   113    1
    61    48    49    1
    62   102   105   ar
    63   102   104   ar
    64    98    97    2
    65   105   107   ar
    66   103   104   ar
    67    49    52    1
    68   104   106   ar
    69    96    97    1
    70    96    95    1
    71    52    53    1
    72   107   108   ar
    73    21    19    1
    74   106   108   ar
    75   113   114    1
    76    53    55   ar
    77    53    54   ar
    78    94    93    1
    79    55    57   ar
    80    19    20    1
    81    19    16    1
    82    54    56   ar
    83    57    56   ar
    84    16    15    1
    85    16    17    1
    86    93    92   ar
    87    93    91   ar
    88    18    17    2
    89    92    90   ar
    90    17    22   am
    91    12    14   ar
    92    12    10   ar
    93    91    89   ar
    94    14    13   ar
    95    10     9   ar
    96    10     8   ar
    97     9     7   ar
    98    90    88   ar
    99    22    23    1
   100    13    11   ar
   101    89    88   ar
   102    30    28   ar
   103    30    32   ar
   104    28    27   ar
   105    88    87    1
   106     8    11   ar
   107     8     6   ar
   108     7     6   ar
   109    33    32    1
   110    23    24    1
   111    23    26    1
   112    32    31   ar
   113     6     5    1
   114    24    25    2
   115    27    26    1
   116    27    29   ar
   117    87    84    1
   118    31    29   ar
   119    86    85    2
   120     5     2    1
   121    85    84    1
   122    83    84    1
   123     2     3    1
   124     2     1    1
   125     3     4    2
