@<TRIPOS>MOLECULE
tmp/2iscD00.pdb
 113 105 0 0 0
SMALL
GASTEIGER

@<TRIPOS>ATOM
      1  N        -39.6180   -4.6860   -4.7430 N.3    20  GLY20      -0.1225
      2  CA       -40.1190   -3.6840   -5.6650 C.3    20  GLY20       0.1811
      3  C        -41.4380   -3.1130   -5.2260 C.2    20  GLY20       0.2280
      4  O        -41.5950   -1.8900   -5.1440 O.2    20  GLY20      -0.2866
      5  N        -39.8470   -0.0460   -8.8960 N.3    64  MET64      -0.1245
      6  CA       -39.4130   -0.8290  -10.0560 C.3    64  MET64       0.1570
      7  C        -38.2880   -0.1610  -10.8370 C.2    64  MET64       0.2261
      8  O        -38.3750    1.0230  -11.1650 O.2    64  MET64      -0.2867
      9  CB       -40.5870   -1.0950  -11.0080 C.3    64  MET64       0.0387
     10  CG       -41.6870   -1.9700  -10.4120 C.3    64  MET64       0.0595
     11  SD       -42.9720   -2.3990  -11.5940 S.3    64  MET64      -0.1393
     12  CE       -43.6320   -0.7870  -12.0140 C.3    64  MET64       0.0692
     13  N        -32.2190   -8.1050   -1.8570 N.3    87  ARG87      -0.1245
     14  CA       -33.4080   -7.9250   -2.6540 C.3    87  ARG87       0.1563
     15  C        -34.1770   -9.2280   -2.7090 C.2    87  ARG87       0.2260
     16  O        -33.6300  -10.2810   -3.0470 O.2    87  ARG87      -0.2867
     17  CB       -33.0720   -7.4450   -4.0620 C.3    87  ARG87       0.0307
     18  CG       -34.1260   -7.7970   -5.0910 C.3    87  ARG87       0.0489
     19  CD       -34.0070   -6.9810   -6.3550 C.3    87  ARG87       0.2205
     20  NE       -34.7820   -7.6150   -7.4090 N.pl3  87  ARG87      -0.0865
     21  CZ       -36.1010   -7.5040   -7.5430 C.cat  87  ARG87       0.5346
     22  NH1      -36.8100   -6.7530   -6.7000 N.pl3  87  ARG87       0.1354
     23  NH2      -36.7090   -8.1420   -8.5360 N.pl3  87  ARG87       0.1354
     24  N        -39.4680  -10.8000   -7.5920 N.3    90  THR90      -0.1203
     25  CA       -40.0040  -11.7470   -8.5480 C.3    90  THR90       0.1994
     26  C        -39.0950  -11.6470   -9.7420 C.2    90  THR90       0.2618
     27  O        -38.1900  -10.8080   -9.7640 O.2    90  THR90      -0.2717
     28  CB       -41.4600  -11.4200   -8.9490 C.3    90  THR90       0.1784
     29  OG1      -41.5700  -10.0340   -9.2730 O.3    90  THR90      -0.2211
     30  CG2      -42.3890  -11.7010   -7.8120 C.3    90  THR90       0.0376
     31  N        -39.3260  -12.5080  -10.7220 N.am   91  CYS91      -0.1955
     32  CA       -38.5430  -12.5210  -11.9440 C.3    91  CYS91       0.1843
     33  C        -39.3070  -13.2830  -13.0050 C.2    91  CYS91       0.2626
     34  O        -40.2840  -13.9760  -12.6950 O.2    91  CYS91      -0.2714
     35  CB       -37.1780  -13.1580  -11.7020 C.3    91  CYS91       0.0997
     36  SG       -37.2720  -14.8400  -11.0680 S.3    91  CYS91      -0.0797
     37  N        -38.8850  -13.1220  -14.2530 N.am   92  GLY92      -0.1954
     38  CA       -39.4470  -13.8750  -15.3530 C.3    92  GLY92       0.1869
     39  C        -38.4170  -14.8720  -15.8270 C.2    92  GLY92       0.2309
     40  O        -37.2770  -14.5060  -16.1150 O.2    92  GLY92      -0.2863
     41  N        -33.3400   -5.7600  -16.9650 N.3   156  THR156     -0.1218
     42  CA       -33.8010   -5.0110  -18.1300 C.3   156  THR156      0.1862
     43  C        -34.2990   -3.6650  -17.6910 C.2   156  THR156      0.2287
     44  O        -34.7820   -3.5200  -16.5750 O.2   156  THR156     -0.2866
     45  CB       -34.8950   -5.7330  -18.9440 C.3   156  THR156      0.1770
     46  OG1      -35.1830   -4.9780  -20.1330 O.3   156  THR156     -0.2211
     47  CG2      -36.1730   -5.8880  -18.1330 C.3   156  THR156      0.0375
     48  N        -39.3910   -3.6700  -19.3800 N.3   159  PHE159     -0.1241
     49  CA       -40.3030   -4.7820  -19.1700 C.3   159  PHE159      0.1605
     50  C        -40.8840   -5.2450  -20.5160 C.2   159  PHE159      0.2264
     51  O        -40.8670   -6.4250  -20.8260 O.2   159  PHE159     -0.2867
     52  CB       -41.4230   -4.3990  -18.1920 C.3   159  PHE159      0.0534
     53  CG       -42.3860   -5.5280  -17.9010 C.ar  159  PHE159     -0.0203
     54  CD1      -42.1270   -6.4340  -16.8870 C.ar  159  PHE159     -0.0042
     55  CD2      -43.5280   -5.6930  -18.6660 C.ar  159  PHE159     -0.0042
     56  CE1      -42.9860   -7.4820  -16.6350 C.ar  159  PHE159     -0.0003
     57  CE2      -44.3920   -6.7330  -18.4250 C.ar  159  PHE159     -0.0003
     58  CZ       -44.1230   -7.6330  -17.4030 C.ar  159  PHE159     -0.0000
     59  N        -35.1530  -12.7600  -15.5140 N.3   178  VAL178     -0.1231
     60  CA       -35.1200  -11.3280  -15.7540 C.3   178  VAL178      0.1692
     61  C        -35.9030  -10.5700  -14.6970 C.2   178  VAL178      0.2592
     62  O        -37.0570  -10.8850  -14.4020 O.2   178  VAL178     -0.2718
     63  CB       -35.7110  -10.9460  -17.1350 C.3   178  VAL178      0.0266
     64  CG1      -35.6620   -9.4390  -17.3360 C.3   178  VAL178      0.0020
     65  CG2      -34.9550  -11.6090  -18.2440 C.3   178  VAL178      0.0020
     66  N        -35.2540   -9.5610  -14.1420 N.am  179  GLU179     -0.1966
     67  CA       -35.8850   -8.5960  -13.2820 C.3   179  GLU179      0.1733
     68  C        -35.3160   -7.2460  -13.7070 C.2   179  GLU179      0.2616
     69  O        -34.7350   -7.1340  -14.7810 O.2   179  GLU179     -0.2715
     70  CB       -35.6230   -8.9110  -11.8040 C.3   179  GLU179      0.0429
     71  CG       -34.1950   -9.3180  -11.4670 C.3   179  GLU179      0.1163
     72  CD       -33.2790   -8.1190  -11.3020 C.2   179  GLU179      0.3649
     73  OE1      -32.6430   -7.7340  -12.3060 O.co2 179  GLU179     -0.2457
     74  OE2      -33.2290   -7.5430  -10.1840 O.co2 179  GLU179     -0.2457
     75  N        -35.4790   -6.2250  -12.8790 N.am  180  MET180     -0.1963
     76  CA       -35.1480   -4.8810  -13.3120 C.3   180  MET180      0.1736
     77  C        -34.3170   -4.1310  -12.2700 C.2   180  MET180      0.2616
     78  O        -34.3600   -2.9030  -12.1980 O.2   180  MET180     -0.2715
     79  CB       -36.4460   -4.1190  -13.6140 C.3   180  MET180      0.0427
     80  CG       -37.2750   -4.7360  -14.7290 C.3   180  MET180      0.0599
     81  SD       -38.7940   -3.8400  -15.1090 S.3   180  MET180     -0.1393
     82  CE       -38.1720   -2.2900  -15.7220 C.3   180  MET180      0.0692
     83  N        -33.5680   -4.8470  -11.4410 N.am  181  GLU181     -0.1977
     84  CA       -33.0290   -4.1700  -10.2810 C.3   181  GLU181      0.1602
     85  C        -31.6000   -4.5110   -9.8770 C.2   181  GLU181      0.2287
     86  O        -30.8620   -3.6430   -9.4260 O.2   181  GLU181     -0.2864
     87  CB       -33.9720   -4.3510   -9.1040 C.3   181  GLU181      0.0415
     88  CG       -35.2510   -3.5770   -9.2300 C.3   181  GLU181      0.1163
     89  CD       -36.3840   -4.3430   -9.9150 C.2   181  GLU181      0.3649
     90  OE1      -37.3830   -3.6780  -10.2630 O.co2 181  GLU181     -0.2457
     91  OE2      -36.2930   -5.5840  -10.1180 O.co2 181  GLU181     -0.2457
     92  N        -42.3540  -15.4300  -11.4960 N.3   203  SER203     -0.1202
     93  CA       -43.7630  -15.0100  -11.6250 C.3   203  SER203      0.2020
     94  C        -44.3910  -15.2760  -12.9960 C.2   203  SER203      0.2618
     95  O        -45.6120  -15.3790  -13.1080 O.2   203  SER203     -0.2717
     96  CB       -43.9220  -13.5340  -11.2530 C.3   203  SER203      0.2103
     97  OG       -43.2740  -12.7000  -12.1850 O.3   203  SER203     -0.2182
     98  N        -43.5520  -15.3780  -14.0240 N.am  204  ASP204     -0.1973
     99  CA       -43.9850  -15.6560  -15.3930 C.3   204  ASP204      0.1709
    100  C        -42.7880  -16.1620  -16.1800 C.2   204  ASP204      0.2293
    101  O        -41.6470  -15.9150  -15.7960 O.2   204  ASP204     -0.2864
    102  CB       -44.5220  -14.3860  -16.0510 C.3   204  ASP204      0.1436
    103  CG       -43.5010  -13.2440  -16.0550 C.2   204  ASP204      0.3671
    104  OD1      -43.0670  -12.8250  -17.1480 O.co2 204  ASP204     -0.2456
    105  OD2      -43.1200  -12.7710  -14.9660 O.co2 204  ASP204     -0.2456
    106  N        -40.7980  -15.9390  -19.8690 N.3   206  ILE206     -0.1245
    107  CA       -40.7270  -15.0040  -20.9950 C.3   206  ILE206      0.1561
    108  C        -40.6180  -15.7220  -22.3520 C.2   206  ILE206      0.2260
    109  O        -40.7890  -15.1030  -23.3990 O.2   206  ILE206     -0.2867
    110  CB       -39.6110  -13.9240  -20.8150 C.3   206  ILE206      0.0252
    111  CG1      -38.2410  -14.4740  -21.2230 C.3   206  ILE206      0.0019
    112  CG2      -39.6140  -13.3590  -19.3800 C.3   206  ILE206      0.0019
    113  CD1      -37.1450  -13.4250  -21.3230 C.3   206  ILE206      0.0001
@<TRIPOS>BOND
     1   109   108    2
     2   108   107    1
     3   113   111    1
     4   111   110    1
     5   107   110    1
     6   107   106    1
     7    51    50    2
     8   110   112    1
     9    50    49    1
    10    46    45    1
    11    48    49    1
    12    49    52    1
    13    45    47    1
    14    45    42    1
    15    55    57   ar
    16    55    53   ar
    17    57    58   ar
    18    65    63    1
    19    52    53    1
    20    42    43    1
    21    42    41    1
    22    53    54   ar
    23    43    44    2
    24    58    56   ar
    25    64    63    1
    26   104   103   ar
    27    63    60    1
    28    54    56   ar
    29   100   101    2
    30   100    99    1
    31    40    39    2
    32   103   102    1
    33   103   105   ar
    34   102    99    1
    35    39    38    1
    36    60    59    1
    37    60    61    1
    38    82    81    1
    39    99    98    1
    40    38    37    1
    41    81    80    1
    42    69    68    2
    43    80    79    1
    44    61    62    2
    45    61    66   am
    46    37    33   am
    47    66    67    1
    48    98    94   am
    49    68    67    1
    50    68    75   am
    51    79    76    1
    52    76    75    1
    53    76    77    1
    54    67    70    1
    55    95    94    2
    56    33    34    2
    57    33    32    1
    58    94    93    1
    59    73    72   ar
    60    77    78    2
    61    77    83   am
    62    97    96    1
    63    12    11    1
    64    32    35    1
    65    32    31    1
    66    70    71    1
    67    35    36    1
    68    93    92    1
    69    93    96    1
    70    11    10    1
    71    71    72    1
    72    83    84    1
    73    72    74   ar
    74     8     7    2
    75     9    10    1
    76     9     6    1
    77     7     6    1
    78    31    26   am
    79    84    85    1
    80    84    87    1
    81    90    89   ar
    82    91    89   ar
    83     6     5    1
    84    89    88    1
    85    85    86    2
    86    27    26    2
    87    26    25    1
    88    29    28    1
    89    88    87    1
    90    28    25    1
    91    28    30    1
    92    25    24    1
    93    23    21    1
    94    21    20    2
    95    21    22    1
    96    20    19    1
    97    19    18    1
    98     2     3    1
    99     2     1    1
   100     3     4    2
   101    18    17    1
   102    17    14    1
   103    16    15    2
   104    15    14    1
   105    14    13    1
