@<TRIPOS>MOLECULE
tmp/2islF00.pdb
 142 140 0 0 0
SMALL
GASTEIGER

@<TRIPOS>ATOM
      1  N         54.3350   27.7160   62.1690 N.3    22  ARG22      -0.1231
      2  CA        53.7010   28.6180   61.2190 C.3    22  ARG22       0.1694
      3  C         53.1970   27.8660   59.9950 C.2    22  ARG22       0.2592
      4  O         53.9090   27.0470   59.4130 O.2    22  ARG22      -0.2718
      5  CB        54.6320   29.7840   60.8360 C.3    22  ARG22       0.0321
      6  CG        55.9330   29.4480   60.1720 C.3    22  ARG22       0.0489
      7  CD        55.8390   29.6420   58.6760 C.3    22  ARG22       0.2205
      8  NE        56.1120   28.3830   57.9950 N.pl3  22  ARG22      -0.0865
      9  CZ        55.4620   27.9590   56.9200 C.cat  22  ARG22       0.5346
     10  NH1       54.4970   28.6940   56.3880 N.pl3  22  ARG22       0.1354
     11  NH2       55.7580   26.7810   56.3990 N.pl3  22  ARG22       0.1354
     12  N         51.9410   28.1320   59.6390 N.am   23  ARG23      -0.1966
     13  CA        51.2880   27.4910   58.5020 C.3    23  ARG23       0.1729
     14  C         50.9450   28.5430   57.4580 C.2    23  ARG23       0.2616
     15  O         50.8990   29.7330   57.7700 O.2    23  ARG23      -0.2715
     16  CB        49.9890   26.8250   58.9600 C.3    23  ARG23       0.0348
     17  CG        50.0810   26.0800   60.2880 C.3    23  ARG23       0.0492
     18  CD        50.5910   24.6430   60.1440 C.3    23  ARG23       0.2205
     19  NE        51.8200   24.5570   59.3670 N.pl3  23  ARG23      -0.0865
     20  CZ        52.7120   23.5840   59.4940 C.cat  23  ARG23       0.5346
     21  NH1       52.5150   22.6150   60.3770 N.pl3  23  ARG23       0.1354
     22  NH2       53.7970   23.5740   58.7340 N.pl3  23  ARG23       0.1354
     23  N         50.6920   28.1080   56.2260 N.am   24  ASP24      -0.1971
     24  CA        50.3280   29.0310   55.1490 C.3    24  ASP24       0.1709
     25  C         48.8170   29.2680   55.1820 C.2    24  ASP24       0.2293
     26  O         48.1150   28.9170   54.2460 O.2    24  ASP24      -0.2864
     27  CB        50.7150   28.4570   53.7780 C.3    24  ASP24       0.1436
     28  CG        50.4030   29.4170   52.6330 C.2    24  ASP24       0.3671
     29  OD1       51.3180   30.1290   52.1740 O.co2  24  ASP24      -0.2456
     30  OD2       49.2370   29.4760   52.1900 O.co2  24  ASP24      -0.2456
     31  N         45.2080   29.8550   54.6880 N.3    26  ARG26      -0.1245
     32  CA        44.4640   30.2080   53.4800 C.3    26  ARG26       0.1563
     33  C         43.0440   30.6590   53.7970 C.2    26  ARG26       0.2260
     34  O         42.5730   31.6680   53.2620 O.2    26  ARG26      -0.2867
     35  CB        44.3720   29.0270   52.5080 C.3    26  ARG26       0.0307
     36  CG        45.6880   28.5330   51.9040 C.3    26  ARG26       0.0489
     37  CD        46.3420   27.4780   52.7860 C.3    26  ARG26       0.2205
     38  NE        47.3560   26.6970   52.0840 N.pl3  26  ARG26      -0.0865
     39  CZ        48.1260   25.7880   52.6740 C.cat  26  ARG26       0.5346
     40  NH1       48.0020   25.5550   53.9780 N.pl3  26  ARG26       0.1354
     41  NH2       49.0030   25.0910   51.9620 N.pl3  26  ARG26       0.1354
     42  N         42.0330   24.9930   49.2290 N.3    99  LYS99      -0.1231
     43  CA        41.9220   26.4380   49.2750 C.3    99  LYS99       0.1693
     44  C         43.3380   26.9700   49.0710 C.2    99  LYS99       0.2591
     45  O         44.2540   26.6460   49.8270 O.2    99  LYS99      -0.2718
     46  CB        41.3310   26.9110   50.6030 C.3    99  LYS99       0.0285
     47  CG        39.8140   26.7690   50.6700 C.3    99  LYS99       0.0035
     48  CD        39.1310   27.2570   49.3780 C.3    99  LYS99       0.0206
     49  CE        39.4230   28.7280   49.0630 C.3    99  LYS99       0.1093
     50  NZ        38.7990   29.1740   47.7700 N.3    99  LYS99      -0.1314
     51  N         43.5120   27.7730   48.0270 N.am  100  LEU100     -0.1980
     52  CA        44.8190   28.3080   47.6880 C.3   100  LEU100      0.1596
     53  C         44.9400   29.8110   47.8450 C.2   100  LEU100      0.2287
     54  O         45.9760   30.3880   47.5140 O.2   100  LEU100     -0.2864
     55  CB        45.1580   27.9310   46.2490 C.3   100  LEU100      0.0297
     56  CG        44.9420   26.4650   45.8720 C.3   100  LEU100      0.0022
     57  CD1       45.4130   26.2470   44.4370 C.3   100  LEU100      0.0001
     58  CD2       45.6990   25.5600   46.8370 C.3   100  LEU100      0.0001
     59  N         57.0580   36.2970   57.9570 N.3   145  TRP145     -0.1241
     60  CA        56.2920   35.0740   58.2100 C.3   145  TRP145      0.1605
     61  C         56.4440   34.5110   59.6380 C.2   145  TRP145      0.2264
     62  O         55.4610   34.1050   60.2590 O.2   145  TRP145     -0.2867
     63  CB        56.6820   34.0050   57.1880 C.3   145  TRP145      0.0550
     64  CG        55.5280   33.1650   56.7440 C.ar  145  TRP145      0.0003
     65  CD1       54.3780   32.9200   57.4360 C.ar  145  TRP145      0.0946
     66  CD2       55.4170   32.4450   55.5130 C.ar  145  TRP145      0.0152
     67  NE1       53.5570   32.0920   56.7090 N.ar  145  TRP145     -0.2442
     68  CE2       54.1730   31.7870   55.5240 C.ar  145  TRP145      0.0810
     69  CE3       56.2490   32.2920   54.4000 C.ar  145  TRP145      0.0012
     70  CZ2       53.7390   30.9890   54.4670 C.ar  145  TRP145      0.0191
     71  CZ3       55.8140   31.4950   53.3430 C.ar  145  TRP145      0.0001
     72  CH2       54.5700   30.8550   53.3890 C.ar  145  TRP145      0.0015
     73  N         50.8970   32.9010   51.4170 N.3   157  TRP157     -0.1227
     74  CA        51.5770   33.3830   50.2260 C.3   157  TRP157      0.1737
     75  C         50.6980   32.9160   49.0780 C.2   157  TRP157      0.2595
     76  O         50.2840   31.7570   49.0610 O.2   157  TRP157     -0.2718
     77  CB        52.9460   32.7180   50.1190 C.3   157  TRP157      0.0564
     78  CG        53.8120   33.2000   49.0000 C.ar  157  TRP157      0.0003
     79  CD1       53.4300   33.4830   47.7230 C.ar  157  TRP157      0.0946
     80  CD2       55.2310   33.3880   49.0450 C.ar  157  TRP157      0.0152
     81  NE1       54.5220   33.8330   46.9680 N.ar  157  TRP157     -0.2442
     82  CE2       55.6410   33.7830   47.7560 C.ar  157  TRP157      0.0810
     83  CE3       56.1960   33.2600   50.0520 C.ar  157  TRP157      0.0012
     84  CZ2       56.9750   34.0530   47.4440 C.ar  157  TRP157      0.0191
     85  CZ3       57.5220   33.5290   49.7430 C.ar  157  TRP157      0.0001
     86  CH2       57.8990   33.9210   48.4480 C.ar  157  TRP157      0.0015
     87  N         50.3960   33.8100   48.1390 N.am  158  VAL158     -0.1966
     88  CA        49.5680   33.4560   46.9850 C.3   158  VAL158      0.1727
     89  C         50.2990   33.7810   45.6900 C.2   158  VAL158      0.2617
     90  O         50.3740   34.9410   45.2940 O.2   158  VAL158     -0.2715
     91  CB        48.2340   34.2230   46.9740 C.3   158  VAL158      0.0290
     92  CG1       47.4490   33.8570   45.7290 C.3   158  VAL158      0.0023
     93  CG2       47.4310   33.8960   48.2040 C.3   158  VAL158      0.0023
     94  N         50.8250   32.7640   45.0190 N.am  159  SER159     -0.1936
     95  CA        51.5560   33.0040   43.7800 C.3   159  SER159      0.2055
     96  C         50.9200   32.3630   42.5590 C.2   159  SER159      0.2642
     97  O         51.6220   31.9670   41.6320 O.2   159  SER159     -0.2714
     98  CB        52.9920   32.5000   43.9070 C.3   159  SER159      0.2130
     99  OG        53.0180   31.0900   43.9800 O.3   159  SER159     -0.2179
    100  N         49.5960   32.2630   42.5500 N.am  160  ILE160     -0.1977
    101  CA        48.9220   31.6600   41.4110 C.3   160  ILE160      0.1596
    102  C         48.0640   32.6500   40.6290 C.2   160  ILE160      0.2287
    103  O         46.8810   32.8380   40.9090 O.2   160  ILE160     -0.2864
    104  CB        48.0710   30.4300   41.8440 C.3   160  ILE160      0.0276
    105  CG1       48.9950   29.3280   42.3790 C.3   160  ILE160      0.0022
    106  CG2       47.2830   29.8870   40.6590 C.3   160  ILE160      0.0022
    107  CD1       48.2690   28.0830   42.8500 C.3   160  ILE160      0.0001
    108  N         51.3650   20.6820   57.7530 N.3   194  PRO194     -0.2102
    109  CA        50.9820   21.3740   56.5260 C.3   194  PRO194      0.1504
    110  C         49.6240   20.8960   56.0230 C.2   194  PRO194      0.2576
    111  O         49.4250   19.7050   55.7520 O.2   194  PRO194     -0.2718
    112  CB        52.1220   21.0380   55.5790 C.3   194  PRO194      0.0282
    113  CG        53.3000   20.9710   56.5160 C.3   194  PRO194      0.0208
    114  CD        52.7480   20.1790   57.6710 C.3   194  PRO194      0.0893
    115  N         48.6930   21.8450   55.9270 N.am  195  GLU195     -0.1966
    116  CA        47.3290   21.6030   55.4640 C.3   195  GLU195      0.1733
    117  C         47.2970   20.7040   54.2230 C.2   195  GLU195      0.2616
    118  O         46.5900   19.7010   54.1820 O.2   195  GLU195     -0.2715
    119  CB        46.6640   22.9440   55.1470 C.3   195  GLU195      0.0429
    120  CG        45.1810   22.8690   54.8710 C.3   195  GLU195      0.1163
    121  CD        44.5740   24.2340   54.6000 C.2   195  GLU195      0.3649
    122  OE1       44.9010   25.1880   55.3440 O.co2 195  GLU195     -0.2457
    123  OE2       43.7660   24.3510   53.6490 O.co2 195  GLU195     -0.2457
    124  N         48.0720   21.0690   53.2120 N.am  196  LEU196     -0.1977
    125  CA        48.1230   20.2970   51.9810 C.3   196  LEU196      0.1596
    126  C         48.3330   18.8020   52.2330 C.2   196  LEU196      0.2287
    127  O         47.8010   17.9700   51.5060 O.2   196  LEU196     -0.2864
    128  CB        49.2390   20.8360   51.0950 C.3   196  LEU196      0.0297
    129  CG        49.0460   20.6180   49.6030 C.3   196  LEU196      0.0022
    130  CD1       47.7210   21.2420   49.1990 C.3   196  LEU196      0.0001
    131  CD2       50.2070   21.2410   48.8240 C.3   196  LEU196      0.0001
    132  N         54.9750   14.8320   53.6180 N.3   204  ARG204     -0.1245
    133  CA        56.3110   15.3020   53.9920 C.3   204  ARG204      0.1563
    134  C         57.3900   14.3460   53.5180 C.2   204  ARG204      0.2260
    135  O         57.2670   13.1340   53.6920 O.2   204  ARG204     -0.2867
    136  CB        56.4080   15.4260   55.5150 C.3   204  ARG204      0.0307
    137  CG        57.7790   15.8160   56.0470 C.3   204  ARG204      0.0489
    138  CD        57.9640   17.3150   56.0050 C.3   204  ARG204      0.2205
    139  NE        57.0990   18.0090   56.9550 N.pl3 204  ARG204     -0.0865
    140  CZ        56.8350   19.3100   56.8960 C.cat 204  ARG204      0.5346
    141  NH1       57.3680   20.0430   55.9300 N.pl3 204  ARG204      0.1354
    142  NH2       56.0450   19.8820   57.7960 N.pl3 204  ARG204      0.1354
@<TRIPOS>BOND
     1   102   103    2
     2   102   101    1
     3   106   104    1
     4   101   104    1
     5   101   100    1
     6    97    96    2
     7   104   105    1
     8   105   107    1
     9   100    96   am
    10    96    95    1
    11    95    98    1
    12    95    94    1
    13    98    99    1
    14    57    56    1
    15    94    89   am
    16    90    89    2
    17    89    88    1
    18    92    91    1
    19    56    55    1
    20    56    58    1
    21    55    52    1
    22    81    79   ar
    23    81    82   ar
    24    91    88    1
    25    91    93    1
    26    88    87    1
    27    84    82   ar
    28    84    86   ar
    29    54    53    2
    30    52    53    1
    31    52    51    1
    32    79    78   ar
    33    82    80   ar
    34    50    49    1
    35    51    44   am
    36    87    75   am
    37    86    85   ar
    38   131   129    1
    39    78    80   ar
    40    78    77    1
    41    80    83   ar
    42    76    75    2
    43    49    48    1
    44    44    43    1
    45    44    45    2
    46    75    74    1
    47   130   129    1
    48    42    43    1
    49    43    46    1
    50    48    47    1
    51   129   128    1
    52    85    83   ar
    53    77    74    1
    54    74    73    1
    55    46    47    1
    56   128   125    1
    57   127   126    2
    58    36    35    1
    59    36    37    1
    60    41    39    1
    61   125   126    1
    62   125   124    1
    63    38    39    2
    64    38    37    1
    65    29    28   ar
    66    30    28   ar
    67    35    32    1
    68    28    27    1
    69    39    40    1
    70   124   117   am
    71    34    33    2
    72    71    72   ar
    73    71    69   ar
    74    72    70   ar
    75    32    33    1
    76    32    31    1
    77   134   135    2
    78   134   133    1
    79   132   133    1
    80   123   121   ar
    81    27    24    1
    82   133   136    1
    83   118   117    2
    84   117   116    1
    85    26    25    2
    86    69    66   ar
    87    70    68   ar
    88   121   120    1
    89   121   122   ar
    90   120   119    1
    91   119   116    1
    92    24    25    1
    93    24    23    1
    94   116   115    1
    95    66    68   ar
    96    66    64   ar
    97   136   137    1
    98    68    67   ar
    99   112   113    1
   100   112   109    1
   101   111   110    2
   102   115   110   am
   103   141   140    1
   104   138   137    1
   105   138   139    1
   106   110   109    1
   107    23    14   am
   108    10     9    1
   109    11     9    1
   110   113   114    1
   111   109   108    1
   112    67    65   ar
   113    64    63    1
   114    64    65   ar
   115   140   139    2
   116   140   142    1
   117     9     8    2
   118    63    60    1
   119    14    15    2
   120    14    13    1
   121   114   108    1
   122    59    60    1
   123     8     7    1
   124    60    61    1
   125    13    16    1
   126    13    12    1
   127     7     6    1
   128    22    20    1
   129    16    17    1
   130    19    20    2
   131    19    18    1
   132     4     3    2
   133    20    21    1
   134    61    62    2
   135    12     3   am
   136     3     2    1
   137    18    17    1
   138     6     5    1
   139     5     2    1
   140     2     1    1
