@<TRIPOS>MOLECULE
tmp/2islF01.pdb
 93 91 0 0 0
SMALL
GASTEIGER

@<TRIPOS>ATOM
      1  N         64.6870   43.8390   58.2760 N.3    48  GLN48      -0.1231
      2  CA        65.9190   43.4260   58.9080 C.3    48  GLN48       0.1698
      3  C         66.4240   42.1110   58.3270 C.2    48  GLN48       0.2592
      4  O         67.1510   41.3630   58.9760 O.2    48  GLN48      -0.2718
      5  CB        65.7040   43.3190   60.4070 C.3    48  GLN48       0.0381
      6  CG        65.4510   44.6760   61.0530 C.3    48  GLN48       0.0905
      7  CD        65.4180   44.5970   62.5660 C.2    48  GLN48       0.2608
      8  OE1       64.3470   44.5010   63.1820 O.2    48  GLN48      -0.2717
      9  NE2       66.5990   44.6180   63.1770 N.am   48  GLN48      -0.0878
     10  N         66.0360   41.8370   57.0880 N.am   49  ALA49      -0.1966
     11  CA        66.4550   40.6250   56.4060 C.3    49  ALA49       0.1713
     12  C         67.7870   40.8870   55.7100 C.2    49  ALA49       0.2458
     13  O         68.1740   42.0410   55.5040 O.2    49  ALA49      -0.2730
     14  CB        65.4030   40.2160   55.3870 C.3    49  ALA49       0.0333
     15  N         68.5120   39.8190   55.3390 N.am   50  PRO50      -0.2716
     16  CA        69.8000   40.0110   54.6630 C.3    50  PRO50       0.1536
     17  C         69.6000   40.4150   53.2030 C.2    50  PRO50       0.2599
     18  O         68.5280   40.2040   52.6380 O.2    50  PRO50      -0.2715
     19  CB        70.4710   38.6530   54.8210 C.3    50  PRO50       0.0310
     20  CG        69.3160   37.7140   54.7690 C.3    50  PRO50       0.0237
     21  CD        68.2490   38.3890   55.5920 C.3    50  PRO50       0.0939
     22  N         70.6280   40.9990   52.5960 N.am   51  SER51      -0.1936
     23  CA        70.5340   41.4400   51.2060 C.3    51  SER51       0.2055
     24  C         71.8790   41.3930   50.5190 C.2    51  SER51       0.2643
     25  O         72.8790   41.8090   51.0940 O.2    51  SER51      -0.2714
     26  CB        70.0270   42.8750   51.1390 C.3    51  SER51       0.2130
     27  OG        68.7190   42.9740   51.6520 O.3    51  SER51      -0.2179
     28  N         71.9170   40.9020   49.2880 N.am   52  VAL52      -0.1963
     29  CA        73.1900   40.8650   48.5890 C.3    52  VAL52       0.1727
     30  C         73.6290   42.3310   48.4510 C.2    52  VAL52       0.2617
     31  O         72.8430   43.1910   48.0310 O.2    52  VAL52      -0.2715
     32  CB        73.0590   40.1590   47.1990 C.3    52  VAL52       0.0290
     33  CG1       72.5710   41.1280   46.1300 C.3    52  VAL52       0.0023
     34  CG2       74.3890   39.5270   46.8170 C.3    52  VAL52       0.0023
     35  N         74.8680   42.6190   48.8520 N.am   53  GLY53      -0.1940
     36  CA        75.3620   43.9850   48.7860 C.3    53  GLY53       0.2014
     37  C         74.4700   44.9660   49.5360 C.2    53  GLY53       0.2638
     38  O         74.2960   46.1050   49.1170 O.2    53  GLY53      -0.2714
     39  N         73.9050   44.5070   50.6480 N.am   54  PHE54      -0.1973
     40  CA        73.0150   45.2970   51.4910 C.3    54  PHE54       0.1639
     41  C         71.9990   46.0860   50.6690 C.2    54  PHE54       0.2290
     42  O         71.4460   47.0850   51.1250 O.2    54  PHE54      -0.2864
     43  CB        73.8380   46.2290   52.3890 C.3    54  PHE54       0.0560
     44  CG        73.1030   46.6990   53.6190 C.ar   54  PHE54      -0.0200
     45  CD1       71.9910   46.0060   54.0990 C.ar   54  PHE54      -0.0042
     46  CD2       73.5470   47.8110   54.3260 C.ar   54  PHE54      -0.0042
     47  CE1       71.3360   46.4120   55.2660 C.ar   54  PHE54      -0.0003
     48  CE2       72.8990   48.2260   55.4930 C.ar   54  PHE54      -0.0003
     49  CZ        71.7910   47.5230   55.9630 C.ar   54  PHE54      -0.0000
     50  N         77.3530   44.1980   44.8440 N.3   124  LEU124     -0.1231
     51  CA        78.1800   43.0640   45.2460 C.3   124  LEU124      0.1693
     52  C         77.7390   41.7620   44.5910 C.2   124  LEU124      0.2592
     53  O         78.5630   41.0440   44.0140 O.2   124  LEU124     -0.2718
     54  CB        78.1670   42.8790   46.7660 C.3   124  LEU124      0.0284
     55  CG        78.9130   43.9270   47.5830 C.3   124  LEU124      0.0019
     56  CD1       78.1130   45.2120   47.5820 C.3   124  LEU124      0.0001
     57  CD2       79.1270   43.4270   48.9950 C.3   124  LEU124      0.0001
     58  N         76.4440   41.4630   44.6810 N.am  125  GLY125     -0.1957
     59  CA        75.9220   40.2340   44.1070 C.3   125  GLY125      0.1869
     60  C         75.2890   40.3560   42.7340 C.2   125  GLY125      0.2309
     61  O         75.1890   39.3610   42.0140 O.2   125  GLY125     -0.2863
     62  N         70.0530   36.9320   43.3180 N.3   132  MET132     -0.1245
     63  CA        70.1880   37.1880   44.7490 C.3   132  MET132      0.1570
     64  C         69.2890   38.3260   45.2160 C.2   132  MET132      0.2261
     65  O         68.9030   38.3910   46.3850 O.2   132  MET132     -0.2867
     66  CB        71.6440   37.4850   45.0950 C.3   132  MET132      0.0387
     67  CG        72.6020   36.4380   44.5630 C.3   132  MET132      0.0595
     68  SD        71.9060   34.7660   44.5920 S.3   132  MET132     -0.1393
     69  CE        72.5120   34.1710   46.0850 C.3   132  MET132      0.0692
     70  N         66.0050   36.4710   45.8330 N.3   135  TYR135     -0.1227
     71  CA        66.1450   35.6670   47.0370 C.3   135  TYR135      0.1736
     72  C         66.1490   36.5730   48.2560 C.2   135  TYR135      0.2596
     73  O         65.5100   36.2660   49.2660 O.2   135  TYR135     -0.2718
     74  CB        67.4310   34.8370   46.9660 C.3   135  TYR135      0.0548
     75  CG        67.4550   33.8510   45.8130 C.ar  135  TYR135     -0.0200
     76  CD1       66.4470   33.8570   44.8450 C.ar  135  TYR135     -0.0009
     77  CD2       68.5100   32.9440   45.6650 C.ar  135  TYR135     -0.0009
     78  CE1       66.4860   32.9950   43.7590 C.ar  135  TYR135      0.0417
     79  CE2       68.5620   32.0710   44.5770 C.ar  135  TYR135      0.0417
     80  CZ        67.5450   32.1040   43.6210 C.ar  135  TYR135      0.1957
     81  OH        67.5910   31.2800   42.5120 O.3   135  TYR135     -0.2866
     82  N         66.8580   37.6970   48.1480 N.am  136  SER136     -0.1952
     83  CA        66.9300   38.6720   49.2350 C.3   136  SER136      0.1924
     84  C         65.5220   39.0640   49.6330 C.2   136  SER136      0.2314
     85  O         65.1980   39.1660   50.8150 O.2   136  SER136     -0.2863
     86  CB        67.6810   39.9240   48.7940 C.3   136  SER136      0.2116
     87  OG        69.0800   39.7660   48.9330 O.3   136  SER136     -0.2180
     88  N         63.8680   36.3200   51.6250 N.3   139  CYS139     -0.1235
     89  CA        64.3310   36.3320   53.0010 C.3   139  CYS139      0.1677
     90  C         63.4620   37.2450   53.8510 C.2   139  CYS139      0.2270
     91  O         63.0920   36.8910   54.9710 O.2   139  CYS139     -0.2867
     92  CB        65.7810   36.7940   53.0710 C.3   139  CYS139      0.0956
     93  SG        66.9410   35.5600   52.5040 S.3   139  CYS139     -0.0801
@<TRIPOS>BOND
     1    61    60    2
     2    81    80    1
     3    60    59    1
     4    62    63    1
     5    80    78   ar
     6    80    79   ar
     7    78    76   ar
     8    53    52    2
     9    59    58    1
    10    67    68    1
    11    67    66    1
    12    79    77   ar
    13    52    58   am
    14    52    51    1
    15    68    69    1
    16    63    66    1
    17    63    64    1
    18    50    51    1
    19    76    75   ar
    20    64    65    2
    21    51    54    1
    22    77    75   ar
    23    75    74    1
    24    70    71    1
    25    33    32    1
    26    54    55    1
    27    34    32    1
    28    74    71    1
    29    71    72    1
    30    32    29    1
    31    56    55    1
    32    55    57    1
    33    31    30    2
    34    82    72   am
    35    82    83    1
    36    72    73    2
    37    30    29    1
    38    30    35   am
    39    29    28    1
    40    36    35    1
    41    36    37    1
    42    86    87    1
    43    86    83    1
    44    38    37    2
    45    83    84    1
    46    28    24   am
    47    37    39   am
    48    84    85    2
    49    24    25    2
    50    24    23    1
    51    39    40    1
    52    41    42    2
    53    41    40    1
    54    26    23    1
    55    26    27    1
    56    23    22    1
    57    40    43    1
    58    88    89    1
    59    43    44    1
    60    93    92    1
    61    22    17   am
    62    18    17    2
    63    89    92    1
    64    89    90    1
    65    17    16    1
    66    44    45   ar
    67    44    46   ar
    68    90    91    2
    69    45    47   ar
    70    46    48   ar
    71    16    19    1
    72    16    15    1
    73    20    19    1
    74    20    21    1
    75    47    49   ar
    76    15    21    1
    77    15    12   am
    78    14    11    1
    79    48    49   ar
    80    13    12    2
    81    12    11    1
    82    11    10    1
    83    10     3   am
    84     1     2    1
    85     3     2    1
    86     3     4    2
    87     2     5    1
    88     5     6    1
    89     6     7    1
    90     7     9   am
    91     7     8    2
