@<TRIPOS>MOLECULE
tmp/2isoD00.pdb
 142 135 0 0 0
SMALL
GASTEIGER

@<TRIPOS>ATOM
      1  N          3.2250   -3.5140   24.7770 N.3   140  ARG140     -0.1245
      2  CA         2.4740   -3.4790   23.5230 C.3   140  ARG140      0.1563
      3  C          1.0190   -3.1630   23.8460 C.2   140  ARG140      0.2260
      4  O          0.5790   -3.3310   24.9880 O.2   140  ARG140     -0.2867
      5  CB         2.5310   -4.8390   22.8350 C.3   140  ARG140      0.0307
      6  CG         3.9290   -5.3400   22.5460 C.3   140  ARG140      0.0489
      7  CD         4.5480   -4.5850   21.3980 C.3   140  ARG140      0.2205
      8  NE         3.7620   -4.7290   20.1780 N.pl3 140  ARG140     -0.0865
      9  CZ         4.0640   -4.1330   19.0320 C.cat 140  ARG140      0.5346
     10  NH1        5.1360   -3.3600   18.9620 N.pl3 140  ARG140      0.1354
     11  NH2        3.2890   -4.2990   17.9650 N.pl3 140  ARG140      0.1354
     12  N         -1.0360    4.4320   11.6630 N.3   170  GLY170     -0.1210
     13  CA         0.0320    3.5980   12.1870 C.3   170  GLY170      0.1956
     14  C         -0.2580    2.1240   11.9470 C.2   170  GLY170      0.2612
     15  O         -1.0040    1.7660   11.0310 O.2   170  GLY170     -0.2717
     16  N          0.3220    1.2590   12.7720 N.am  171  SER171     -0.1952
     17  CA         0.1140   -0.1790   12.6130 C.3   171  SER171      0.1924
     18  C         -1.3620   -0.5750   12.7340 C.2   171  SER171      0.2314
     19  O         -1.7950   -1.5540   12.1200 O.2   171  SER171     -0.2863
     20  CB         0.9520   -0.9460   13.6400 C.3   171  SER171      0.2116
     21  OG         0.6000   -0.5650   14.9550 O.3   171  SER171     -0.2180
     22  N         -2.9570   -0.6270    9.5710 N.3   174  ARG174     -0.1245
     23  CA        -2.3580   -1.7080    8.8010 C.3   174  ARG174      0.1563
     24  C         -2.8560   -3.0780    9.2720 C.2   174  ARG174      0.2260
     25  O         -2.3570   -4.1160    8.8280 O.2   174  ARG174     -0.2867
     26  CB        -0.8260   -1.6490    8.8850 C.3   174  ARG174      0.0307
     27  CG        -0.2090   -0.3420    8.3740 C.3   174  ARG174      0.0489
     28  CD         1.2530   -0.5210    7.9570 C.3   174  ARG174      0.2205
     29  NE         2.0810   -1.0930    9.0190 N.pl3 174  ARG174     -0.0865
     30  CZ         2.6480   -0.3950    9.9950 C.cat 174  ARG174      0.5346
     31  NH1        2.4870    0.9210   10.0620 N.pl3 174  ARG174      0.1354
     32  NH2        3.3870   -1.0180   10.9050 N.pl3 174  ARG174      0.1354
     33  N         -0.1490   -2.8630   18.7880 N.3   179  SER179     -0.1202
     34  CA         0.5750   -1.6700   18.3570 C.3   179  SER179      0.2020
     35  C          1.4780   -1.0970   19.4510 C.2   179  SER179      0.2619
     36  O          1.2680   -1.3420   20.6420 O.2   179  SER179     -0.2717
     37  CB        -0.4250   -0.6020   17.9070 C.3   179  SER179      0.2103
     38  OG        -1.2130   -1.0700   16.8190 O.3   179  SER179     -0.2182
     39  N          2.4830   -0.3340   19.0370 N.am  180  GLY180     -0.1942
     40  CA         3.3970    0.2640   19.9890 C.3   180  GLY180      0.2014
     41  C          2.8170    1.5250   20.6100 C.2   180  GLY180      0.2638
     42  O          3.1820    1.8990   21.7320 O.2   180  GLY180     -0.2714
     43  N          1.9140    2.1790   19.8790 N.am  181  ASP181     -0.1971
     44  CA         1.2780    3.3930   20.3550 C.3   181  ASP181      0.1709
     45  C          0.0170    3.6880   19.5460 C.2   181  ASP181      0.2293
     46  O         -0.4320    2.8640   18.7410 O.2   181  ASP181     -0.2864
     47  CB         2.2420    4.5860   20.2390 C.3   181  ASP181      0.1436
     48  CG         2.6100    4.9150   18.8000 C.2   181  ASP181      0.3671
     49  OD1        1.8610    4.5380   17.8770 O.co2 181  ASP181     -0.2456
     50  OD2        3.6490    5.5710   18.5850 O.co2 181  ASP181     -0.2456
     51  N         -1.7340    6.4300   16.9050 N.3   183  ASP183     -0.1239
     52  CA        -1.4820    7.5130   15.9740 C.3   183  ASP183      0.1674
     53  C         -2.8120    7.9810   15.4110 C.2   183  ASP183      0.2266
     54  O         -3.5670    7.2070   14.8170 O.2   183  ASP183     -0.2867
     55  CB        -0.5610    7.0330   14.8510 C.3   183  ASP183      0.1410
     56  CG         0.7930    6.5860   15.3650 C.2   183  ASP183      0.3668
     57  OD1        1.4960    7.4130   15.9850 O.co2 183  ASP183     -0.2456
     58  OD2        1.1540    5.4140   15.1540 O.co2 183  ASP183     -0.2456
     59  N          0.0940   10.1590   19.5560 N.3   247  ASP247     -0.1239
     60  CA         0.4770   11.2330   18.6520 C.3   247  ASP247      0.1674
     61  C         -0.7760   11.6480   17.8850 C.2   247  ASP247      0.2266
     62  O         -1.5610   10.7980   17.4380 O.2   247  ASP247     -0.2867
     63  CB         1.5520   10.7720   17.6550 C.3   247  ASP247      0.1410
     64  CG         2.8870   10.4700   18.3190 C.2   247  ASP247      0.3668
     65  OD1        3.2800   11.1890   19.2560 O.co2 247  ASP247     -0.2456
     66  OD2        3.5580    9.5170   17.8910 O.co2 247  ASP247     -0.2456
     67  N          1.1600    8.9820    4.7160 N.3   262  TYR262     -0.1227
     68  CA         2.3010    9.1860    5.6010 C.3   262  TYR262      0.1736
     69  C          2.1130    8.5630    6.9910 C.2   262  TYR262      0.2595
     70  O          2.9840    7.8350    7.4630 O.2   262  TYR262     -0.2718
     71  CB         2.5710   10.6850    5.7580 C.3   262  TYR262      0.0548
     72  CG         3.1720   11.0440    7.0950 C.ar  262  TYR262     -0.0200
     73  CD1        4.5060   10.7510    7.3890 C.ar  262  TYR262     -0.0009
     74  CD2        2.3960   11.6420    8.0830 C.ar  262  TYR262     -0.0009
     75  CE1        5.0480   11.0450    8.6430 C.ar  262  TYR262      0.0417
     76  CE2        2.9250   11.9410    9.3350 C.ar  262  TYR262      0.0417
     77  CZ         4.2510   11.6370    9.6090 C.ar  262  TYR262      0.1957
     78  OH         4.7620   11.9070   10.8600 O.3   262  TYR262     -0.2866
     79  N          0.9850    8.8470    7.6430 N.am  263  PHE263     -0.1962
     80  CA         0.7310    8.3280    8.9910 C.3   263  PHE263      0.1771
     81  C          0.4210    6.8360    9.0850 C.2   263  PHE263      0.2620
     82  O          0.4970    6.2550   10.1630 O.2   263  PHE263     -0.2715
     83  CB        -0.3830    9.1330    9.6790 C.3   263  PHE263      0.0574
     84  CG        -0.0270    9.5910   11.0800 C.ar  263  PHE263     -0.0200
     85  CD1        1.3020    9.6280   11.5000 C.ar  263  PHE263     -0.0042
     86  CD2       -1.0160   10.0220   11.9610 C.ar  263  PHE263     -0.0042
     87  CE1        1.6430   10.0880   12.7760 C.ar  263  PHE263     -0.0003
     88  CE2       -0.6850   10.4840   13.2360 C.ar  263  PHE263     -0.0003
     89  CZ         0.6460   10.5170   13.6450 C.ar  263  PHE263     -0.0000
     90  N          0.0730    6.2110    7.9680 N.am  264  THR264     -0.1937
     91  CA        -0.1960    4.7740    7.9740 C.3   264  THR264      0.2028
     92  C          1.1210    3.9780    7.9700 C.2   264  THR264      0.2643
     93  O          1.1950    2.8790    8.5160 O.2   264  THR264     -0.2714
     94  CB        -1.0290    4.3810    6.7590 C.3   264  THR264      0.1808
     95  OG1       -2.3160    5.0040    6.8660 O.3   264  THR264     -0.2208
     96  CG2       -1.1870    2.8650    6.6770 C.3   264  THR264      0.0379
     97  N          2.1530    4.5450    7.3500 N.am  265  GLY265     -0.1939
     98  CA         3.4530    3.8900    7.2970 C.3   265  GLY265      0.2014
     99  C          3.4770    2.5430    6.5950 C.2   265  GLY265      0.2640
    100  O          2.6420    2.2860    5.7270 O.2   265  GLY265     -0.2714
    101  N          4.4030    1.6600    6.9760 N.am  266  SER266     -0.1935
    102  CA         5.3810    1.9010    8.0430 C.3   266  SER266      0.2055
    103  C          6.4150    2.9870    7.7340 C.2   266  SER266      0.2643
    104  O          6.4020    3.6000    6.6640 O.2   266  SER266     -0.2714
    105  CB         6.1160    0.5940    8.3700 C.3   266  SER266      0.2130
    106  OG         6.8830    0.1430    7.2590 O.3   266  SER266     -0.2179
    107  N          7.3090    3.2310    8.6870 N.am  267  ASP267     -0.1971
    108  CA         8.3430    4.2340    8.4860 C.3   267  ASP267      0.1709
    109  C          9.2750    3.7650    7.3720 C.2   267  ASP267      0.2293
    110  O          9.6380    4.5420    6.4850 O.2   267  ASP267     -0.2864
    111  CB         9.1080    4.4890    9.7910 C.3   267  ASP267      0.1436
    112  CG         9.7600    3.2320   10.3580 C.2   267  ASP267      0.3671
    113  OD1        9.3190    2.0980   10.0450 O.co2 267  ASP267     -0.2456
    114  OD2       10.7170    3.3940   11.1410 O.co2 267  ASP267     -0.2456
    115  N          7.5140    4.0590    4.0910 N.3   270  ASN270     -0.1225
    116  CA         7.5270    5.4380    3.6320 C.3   270  ASN270      0.1785
    117  C          8.8920    5.7750    3.0240 C.2   270  ASN270      0.2597
    118  O          8.9700    6.4290    1.9810 O.2   270  ASN270     -0.2718
    119  CB         7.2220    6.4010    4.7880 C.3   270  ASN270      0.1169
    120  CG         5.7660    6.3550    5.2270 C.2   270  ASN270      0.2627
    121  OD1        4.9210    5.7230    4.5830 O.2   270  ASN270     -0.2716
    122  ND2        5.4620    7.0400    6.3240 N.am  270  ASN270     -0.0877
    123  N          9.9680    5.3320    3.6690 N.am  271  LYS271     -0.1980
    124  CA        11.3010    5.6200    3.1540 C.3   271  LYS271      0.1596
    125  C         11.4840    5.0020    1.7690 C.2   271  LYS271      0.2287
    126  O         11.9990    5.6520    0.8600 O.2   271  LYS271     -0.2864
    127  CB        12.3840    5.1110    4.1210 C.3   271  LYS271      0.0298
    128  CG        12.4760    5.9180    5.4120 C.3   271  LYS271      0.0038
    129  CD        13.5460    5.4020    6.3740 C.3   271  LYS271      0.0206
    130  CE        14.9610    5.6950    5.8870 C.3   271  LYS271      0.1093
    131  NZ        15.3400    4.8920    4.6880 N.3   271  LYS271     -0.1314
    132  N          9.1550    6.9400   -0.7620 N.3   274  ARG274     -0.1245
    133  CA         9.6510    8.2760   -1.0710 C.3   274  ARG274      0.1563
    134  C         10.9180    8.2130   -1.9170 C.2   274  ARG274      0.2260
    135  O         11.1270    9.0530   -2.7950 O.2   274  ARG274     -0.2867
    136  CB         9.8820    9.0740    0.2150 C.3   274  ARG274      0.0307
    137  CG         8.5740    9.3800    0.9150 C.3   274  ARG274      0.0489
    138  CD         8.7430   10.2200    2.1600 C.3   274  ARG274      0.2205
    139  NE         7.4500   10.4090    2.8060 N.pl3 274  ARG274     -0.0865
    140  CZ         7.2200   11.2730    3.7900 C.cat 274  ARG274      0.5346
    141  NH1        8.2030   12.0400    4.2460 N.pl3 274  ARG274      0.1354
    142  NH2        6.0050   11.3620    4.3220 N.pl3 274  ARG274      0.1354
@<TRIPOS>BOND
     1   135   134    2
     2   134   133    1
     3   133   132    1
     4   133   136    1
     5   136   137    1
     6   126   125    2
     7   137   138    1
     8   125   124    1
     9   118   117    2
    10   138   139    1
    11   139   140    2
    12   117   116    1
    13   117   123   am
    14   124   123    1
    15   124   127    1
    16   116   115    1
    17   116   119    1
    18   140   141    1
    19   140   142    1
    20   127   128    1
    21   121   120    2
    22   131   130    1
    23    67    68    1
    24   119   120    1
    25   120   122   am
    26   128   129    1
    27    68    71    1
    28    68    69    1
    29   100    99    2
    30    71    72    1
    31   130   129    1
    32   110   109    2
    33    99   101   am
    34    99    98    1
    35   104   103    2
    36    96    94    1
    37    94    95    1
    38    94    91    1
    39   101   102    1
    40    69    70    2
    41    69    79   am
    42    72    73   ar
    43    72    74   ar
    44   106   105    1
    45    98    97    1
    46    97    92   am
    47   109   108    1
    48    73    75   ar
    49    79    80    1
    50   103   102    1
    51   103   107   am
    52    28    27    1
    53    28    29    1
    54    90    91    1
    55    90    81   am
    56    92    91    1
    57    92    93    2
    58   102   105    1
    59    74    76   ar
    60    27    26    1
    61   108   107    1
    62   108   111    1
    63    75    77   ar
    64    23    26    1
    65    23    24    1
    66    23    22    1
    67    25    24    2
    68    80    81    1
    69    80    83    1
    70    29    30    2
    71    81    82    2
    72    76    77   ar
    73    77    78    1
    74    83    84    1
    75   111   112    1
    76    30    31    1
    77    30    32    1
    78   113   112   ar
    79   112   114   ar
    80    15    14    2
    81    84    85   ar
    82    84    86   ar
    83    85    87   ar
    84    12    13    1
    85    14    13    1
    86    14    16   am
    87    86    88   ar
    88    19    18    2
    89    17    18    1
    90    17    16    1
    91    17    20    1
    92    87    89   ar
    93    88    89   ar
    94    20    21    1
    95    54    53    2
    96    55    56    1
    97    55    52    1
    98    58    56   ar
    99    56    57   ar
   100    53    52    1
   101    52    51    1
   102    38    37    1
   103    62    61    2
   104    63    64    1
   105    63    60    1
   106    49    48   ar
   107    61    60    1
   108    66    64   ar
   109    37    34    1
   110    11     9    1
   111    64    65   ar
   112    34    33    1
   113    34    35    1
   114    50    48   ar
   115    60    59    1
   116    46    45    2
   117    48    47    1
   118    10     9    1
   119     9     8    2
   120    39    35   am
   121    39    40    1
   122    35    36    2
   123    45    44    1
   124    43    44    1
   125    43    41   am
   126    40    41    1
   127     8     7    1
   128    47    44    1
   129    41    42    2
   130     7     6    1
   131     6     5    1
   132     5     2    1
   133     2     3    1
   134     2     1    1
   135     3     4    2
