@<TRIPOS>MOLECULE
tmp/2isqA01.pdb
 154 147 0 0 0
SMALL
GASTEIGER

@<TRIPOS>ATOM
      1  N         78.7670   37.3640  -18.5170 N.3    43  VAL43      -0.1231
      2  CA        79.9340   36.9760  -17.7390 C.3    43  VAL43       0.1692
      3  C         79.6330   36.8840  -16.2360 C.2    43  VAL43       0.2591
      4  O         80.3240   36.1780  -15.4930 O.2    43  VAL43      -0.2718
      5  CB        81.0790   37.9910  -17.9630 C.3    43  VAL43       0.0266
      6  CG1       80.5900   39.3810  -17.6490 C.3    43  VAL43       0.0020
      7  CG2       82.2850   37.6500  -17.0950 C.3    43  VAL43       0.0020
      8  N         78.5940   37.5840  -15.7910 N.am   44  LYS44      -0.1980
      9  CA        78.2360   37.5920  -14.3780 C.3    44  LYS44       0.1596
     10  C         77.7110   36.2630  -13.8960 C.2    44  LYS44       0.2287
     11  O         77.5440   36.0570  -12.6960 O.2    44  LYS44      -0.2864
     12  CB        77.2020   38.6780  -14.1030 C.3    44  LYS44       0.0298
     13  CG        77.6360   40.0260  -14.6220 C.3    44  LYS44       0.0038
     14  CD        79.0310   40.3540  -14.1370 C.3    44  LYS44       0.0206
     15  CE        79.0760   41.7170  -13.5220 C.3    44  LYS44       0.1093
     16  NZ        79.4050   42.7210  -14.5660 N.3    44  LYS44      -0.1314
     17  N         80.5870   35.1350  -11.6220 N.3    47  ILE47      -0.1245
     18  CA        80.6970   35.6610  -10.2710 C.3    47  ILE47       0.1561
     19  C         79.4100   35.4810   -9.4760 C.2    47  ILE47       0.2260
     20  O         79.4290   35.4800   -8.2400 O.2    47  ILE47      -0.2867
     21  CB        81.1020   37.1470  -10.2580 C.3    47  ILE47       0.0252
     22  CG1       79.9200   38.0330  -10.6400 C.3    47  ILE47       0.0019
     23  CG2       82.2720   37.3630  -11.2030 C.3    47  ILE47       0.0019
     24  CD1       80.2150   39.5100  -10.4550 C.3    47  ILE47       0.0001
     25  N         73.7750   42.8500  -14.9910 N.3    75  ASN75      -0.1240
     26  CA        73.8360   41.4090  -15.1770 C.3    75  ASN75       0.1653
     27  C         74.1050   40.6330  -13.8980 C.2    75  ASN75       0.2266
     28  O         73.8000   39.4420  -13.8290 O.2    75  ASN75      -0.2867
     29  CB        74.8970   41.0420  -16.2220 C.3    75  ASN75       0.1155
     30  CG        74.4490   41.3310  -17.6480 C.2    75  ASN75       0.2627
     31  OD1       73.2800   41.1530  -17.9920 O.2    75  ASN75      -0.2716
     32  ND2       75.3850   41.7570  -18.4890 N.am   75  ASN75      -0.0877
     33  N         84.9270   37.5040   -6.6850 N.3   151  ASN151     -0.1240
     34  CA        84.6450   38.0280   -8.0110 C.3   151  ASN151      0.1653
     35  C         85.8590   37.7770   -8.9080 C.2   151  ASN151      0.2266
     36  O         85.7970   36.9680   -9.8300 O.2   151  ASN151     -0.2867
     37  CB        84.3240   39.5310   -7.9170 C.3   151  ASN151      0.1155
     38  CG        84.1890   40.1980   -9.2760 C.2   151  ASN151      0.2627
     39  OD1       84.5440   39.6240  -10.2990 O.2   151  ASN151     -0.2716
     40  ND2       83.6860   41.4300   -9.2860 N.am  151  ASN151     -0.0877
     41  N         87.6220   34.4340  -11.9840 N.3   155  HIS155     -0.1241
     42  CA        88.1860   34.6890  -13.2950 C.3   155  HIS155      0.1621
     43  C         89.6230   34.2180  -13.3350 C.2   155  HIS155      0.2264
     44  O         90.1470   33.8770  -14.3930 O.2   155  HIS155     -0.2867
     45  CB        88.1160   36.1750  -13.6090 C.3   155  HIS155      0.0745
     46  CG        86.7210   36.6890  -13.7430 C.ar  155  HIS155      0.0817
     47  ND1       85.8670   36.2590  -14.7320 N.ar  155  HIS155     -0.2268
     48  CD2       86.0250   37.5860  -13.0050 C.ar  155  HIS155      0.1154
     49  CE1       84.7020   36.8690  -14.6000 C.ar  155  HIS155      0.1986
     50  NE2       84.7710   37.6790  -13.5590 N.ar  155  HIS155     -0.2212
     51  N         89.9080   43.9350  -21.9120 N.3   176  SER176     -0.1202
     52  CA        88.7490   43.7780  -21.0400 C.3   176  SER176      0.2020
     53  C         88.0520   45.0650  -20.6130 C.2   176  SER176      0.2619
     54  O         88.6870   46.0060  -20.1240 O.2   176  SER176     -0.2717
     55  CB        89.1440   42.9990  -19.7800 C.3   176  SER176      0.2103
     56  OG        88.0260   42.8260  -18.9160 O.3   176  SER176     -0.2182
     57  N         86.7330   45.0880  -20.7970 N.am  177  GLY177     -0.1942
     58  CA        85.9450   46.2390  -20.3930 C.3   177  GLY177      0.2014
     59  C         85.8690   46.1570  -18.8850 C.2   177  GLY177      0.2639
     60  O         85.5900   45.0910  -18.3410 O.2   177  GLY177     -0.2714
     61  N         86.1160   47.2700  -18.2060 N.am  178  ILE178     -0.1963
     62  CA        86.1180   47.2740  -16.7500 C.3   178  ILE178      0.1727
     63  C         84.8580   47.8030  -16.0720 C.2   178  ILE178      0.2617
     64  O         84.5240   48.9890  -16.1640 O.2   178  ILE178     -0.2715
     65  CB        87.3490   48.0490  -16.2220 C.3   178  ILE178      0.0290
     66  CG1       88.6260   47.3980  -16.7630 C.3   178  ILE178      0.0022
     67  CG2       87.3540   48.0620  -14.7010 C.3   178  ILE178      0.0023
     68  CD1       89.9130   48.0780  -16.3450 C.3   178  ILE178      0.0001
     69  N         84.1670   46.8880  -15.3970 N.am  179  GLY179     -0.1940
     70  CA        82.9600   47.2150  -14.6610 C.3   179  GLY179      0.2014
     71  C         83.3770   47.1380  -13.2090 C.2   179  GLY179      0.2640
     72  O         83.6450   48.1660  -12.5890 O.2   179  GLY179     -0.2714
     73  N         83.4420   45.9240  -12.6690 N.am  180  THR180     -0.1936
     74  CA        83.8810   45.7320  -11.2940 C.3   180  THR180      0.2028
     75  C         85.4070   45.6070  -11.3500 C.2   180  THR180      0.2643
     76  O         86.1180   46.0320  -10.4380 O.2   180  THR180     -0.2714
     77  CB        83.2810   44.4400  -10.6550 C.3   180  THR180      0.1808
     78  OG1       83.7020   43.2790  -11.3860 O.3   180  THR180     -0.2208
     79  CG2       81.7750   44.5030  -10.6580 C.3   180  THR180      0.0379
     80  N         85.8980   45.0370  -12.4460 N.am  181  GLY181     -0.1939
     81  CA        87.3250   44.8530  -12.6240 C.3   181  GLY181      0.2014
     82  C         87.7190   43.4150  -12.3460 C.2   181  GLY181      0.2639
     83  O         88.8550   43.0090  -12.5990 O.2   181  GLY181     -0.2714
     84  N         86.7660   42.6380  -11.8390 N.am  182  GLY182     -0.1939
     85  CA        87.0300   41.2480  -11.5090 C.3   182  GLY182      0.2014
     86  C         87.5980   40.4010  -12.6290 C.2   182  GLY182      0.2640
     87  O         88.4380   39.5420  -12.3900 O.2   182  GLY182     -0.2714
     88  N         87.1330   40.6370  -13.8500 N.am  183  THR183     -0.1936
     89  CA        87.5880   39.8880  -15.0170 C.3   183  THR183      0.2028
     90  C         89.0190   40.2000  -15.4240 C.2   183  THR183      0.2642
     91  O         89.8520   39.3000  -15.5520 O.2   183  THR183     -0.2714
     92  CB        86.7000   40.1710  -16.2280 C.3   183  THR183      0.1808
     93  OG1       85.4020   39.6090  -16.0090 O.3   183  THR183     -0.2208
     94  CG2       87.3190   39.5840  -17.4860 C.3   183  THR183      0.0379
     95  N         89.2840   41.4800  -15.6530 N.am  184  ILE184     -0.1977
     96  CA        90.6020   41.9550  -16.0590 C.3   184  ILE184      0.1596
     97  C         91.6420   41.6690  -14.9680 C.2   184  ILE184      0.2287
     98  O         92.7820   41.3460  -15.2610 O.2   184  ILE184     -0.2864
     99  CB        90.5350   43.4850  -16.3510 C.3   184  ILE184      0.0276
    100  CG1       91.4390   43.8570  -17.5370 C.3   184  ILE184      0.0022
    101  CG2       90.8580   44.2800  -15.0870 C.3   184  ILE184      0.0022
    102  CD1       92.8860   43.5480  -17.3610 C.3   184  ILE184      0.0001
    103  N         76.4970   50.2280  -20.9910 N.3   222  GLN222     -0.1231
    104  CA        76.1130   49.4250  -19.8340 C.3   222  GLN222      0.1698
    105  C         77.0900   48.3070  -19.5460 C.2   222  GLN222      0.2593
    106  O         77.5110   47.5990  -20.4560 O.2   222  GLN222     -0.2718
    107  CB        74.7350   48.8030  -20.0280 C.3   222  GLN222      0.0381
    108  CG        73.6030   49.7870  -20.1730 C.3   222  GLN222      0.0905
    109  CD        72.2700   49.1070  -20.0240 C.2   222  GLN222      0.2608
    110  OE1       71.2270   49.6930  -20.2990 O.2   222  GLN222     -0.2717
    111  NE2       72.2940   47.8580  -19.5760 N.am  222  GLN222     -0.0878
    112  N         77.4360   48.1470  -18.2730 N.am  223  GLY223     -0.1942
    113  CA        78.3540   47.0960  -17.8810 C.3   223  GLY223      0.2014
    114  C         79.7000   47.6090  -17.4190 C.2   223  GLY223      0.2638
    115  O         80.4270   46.9150  -16.7040 O.2   223  GLY223     -0.2714
    116  N         80.0420   48.8240  -17.8320 N.am  224  ILE224     -0.1977
    117  CA        81.3090   49.4200  -17.4410 C.3   224  ILE224      0.1596
    118  C         81.1310   50.8810  -17.0310 C.2   224  ILE224      0.2287
    119  O         80.0030   51.3600  -16.8910 O.2   224  ILE224     -0.2864
    120  CB        82.3460   49.3200  -18.5840 C.3   224  ILE224      0.0276
    121  CG1       81.8860   50.1270  -19.8000 C.3   224  ILE224      0.0022
    122  CG2       82.5480   47.8670  -18.9650 C.3   224  ILE224      0.0022
    123  CD1       82.9840   50.3470  -20.8150 C.3   224  ILE224      0.0001
    124  N         78.7430   46.9240  -24.4600 N.3   267  SER267     -0.1217
    125  CA        80.0620   46.8320  -23.8330 C.3   267  SER267      0.1889
    126  C         80.9860   45.9130  -24.6330 C.2   267  SER267      0.2288
    127  O         82.2090   46.0150  -24.5400 O.2   267  SER267     -0.2866
    128  CB        79.9560   46.3420  -22.3820 C.3   267  SER267      0.2089
    129  OG        79.4470   45.0270  -22.3040 O.3   267  SER267     -0.2183
    130  N         81.2500   40.3920  -22.8910 N.3   294  PRO294     -0.2102
    131  CA        80.5110   40.2550  -21.6280 C.3   294  PRO294      0.1504
    132  C         79.0670   39.7710  -21.6800 C.2   294  PRO294      0.2576
    133  O         78.6330   39.0370  -20.7920 O.2   294  PRO294     -0.2718
    134  CB        80.5890   41.6560  -21.0280 C.3   294  PRO294      0.0282
    135  CG        81.7710   42.2790  -21.7000 C.3   294  PRO294      0.0208
    136  CD        81.6310   41.7990  -23.0970 C.3   294  PRO294      0.0893
    137  N         78.3230   40.1950  -22.7020 N.am  295  SER295     -0.1953
    138  CA        76.9200   39.8220  -22.8210 C.3   295  SER295      0.1924
    139  C         76.3600   39.7500  -24.2430 C.2   295  SER295      0.2314
    140  O         76.9260   40.2970  -25.1920 O.2   295  SER295     -0.2863
    141  CB        76.0710   40.7880  -21.9960 C.3   295  SER295      0.2116
    142  OG        76.3010   42.1270  -22.3930 O.3   295  SER295     -0.2180
    143  N         69.2990   43.7150  -24.4930 N.3   300  TYR300     -0.1241
    144  CA        69.3020   45.1650  -24.5980 C.3   300  TYR300      0.1605
    145  C         68.4460   45.7100  -25.7400 C.2   300  TYR300      0.2264
    146  O         68.7510   46.7640  -26.2920 O.2   300  TYR300     -0.2867
    147  CB        70.7480   45.6280  -24.7790 C.3   300  TYR300      0.0534
    148  CG        71.7000   45.0220  -23.7720 C.ar  300  TYR300     -0.0201
    149  CD1       71.7990   45.5390  -22.4780 C.ar  300  TYR300     -0.0009
    150  CD2       72.4870   43.9170  -24.1000 C.ar  300  TYR300     -0.0009
    151  CE1       72.6590   44.9750  -21.5310 C.ar  300  TYR300      0.0417
    152  CE2       73.3500   43.3400  -23.1580 C.ar  300  TYR300      0.0417
    153  CZ        73.4300   43.8770  -21.8750 C.ar  300  TYR300      0.1957
    154  OH        74.2760   43.3260  -20.9340 O.3   300  TYR300     -0.2866
@<TRIPOS>BOND
     1   146   145    2
     2   145   144    1
     3   140   139    2
     4   147   144    1
     5   147   148    1
     6   126   127    2
     7   126   125    1
     8   144   143    1
     9   124   125    1
    10   139   138    1
    11   150   148   ar
    12   150   152   ar
    13   125   128    1
    14   148   149   ar
    15   152   153   ar
    16   136   130    1
    17   136   135    1
    18   130   131    1
    19   138   137    1
    20   138   141    1
    21   137   132   am
    22   149   151   ar
    23   142   141    1
    24   128   129    1
    25    51    52    1
    26   153   151   ar
    27   153   154    1
    28   135   134    1
    29   132   131    1
    30   132   133    2
    31   131   134    1
    32    52    53    1
    33    52    55    1
    34   103   104    1
    35   123   121    1
    36    57    53   am
    37    57    58    1
    38    53    54    2
    39   106   105    2
    40    58    59    1
    41   110   109    2
    42   108   107    1
    43   108   109    1
    44   107   104    1
    45   109   111   am
    46   104   105    1
    47   121   120    1
    48    55    56    1
    49   105   112   am
    50   122   120    1
    51    59    60    2
    52    59    61   am
    53   120   117    1
    54     1     2    1
    55    32    30   am
    56   112   113    1
    57    61    62    1
    58    31    30    2
    59     5     2    1
    60     5     6    1
    61     5     7    1
    62   113   114    1
    63   116   117    1
    64   116   114   am
    65     2     3    1
    66    30    29    1
    67   100   102    1
    68   100    99    1
    69    94    92    1
    70   117   118    1
    71   114   115    2
    72   118   119    2
    73    66    68    1
    74    66    65    1
    75    62    65    1
    76    62    63    1
    77    99    96    1
    78    99   101    1
    79     3     8   am
    80     3     4    2
    81    92    93    1
    82    92    89    1
    83    29    26    1
    84    65    67    1
    85    64    63    2
    86    63    69   am
    87    96    95    1
    88    96    97    1
    89     8     9    1
    90    95    90   am
    91    91    90    2
    92    90    89    1
    93    69    70    1
    94    98    97    2
    95    26    25    1
    96    26    27    1
    97    89    88    1
    98    47    49   ar
    99    47    46   ar
   100    70    71    1
   101    13    14    1
   102    13    12    1
   103    49    50   ar
   104    16    15    1
   105    44    43    2
   106     9    12    1
   107     9    10    1
   108    14    15    1
   109    27    28    2
   110    10    11    2
   111    88    86   am
   112    46    45    1
   113    46    48   ar
   114    45    42    1
   115    50    48   ar
   116    43    42    1
   117    42    41    1
   118    71    73   am
   119    71    72    2
   120    73    74    1
   121    86    87    2
   122    86    85    1
   123    81    80    1
   124    81    82    1
   125    83    82    2
   126    80    75   am
   127    82    84   am
   128    84    85    1
   129    17    18    1
   130    78    77    1
   131    75    74    1
   132    75    76    2
   133    74    77    1
   134    23    21    1
   135    79    77    1
   136    22    24    1
   137    22    21    1
   138    39    38    2
   139    18    21    1
   140    18    19    1
   141    36    35    2
   142    19    20    2
   143    40    38   am
   144    38    37    1
   145    35    34    1
   146    34    37    1
   147    34    33    1
