@<TRIPOS>MOLECULE
tmp/2issB00.pdb
 130 122 0 0 0
SMALL
GASTEIGER

@<TRIPOS>ATOM
      1  N         79.0740   28.1640   85.2510 N.3    30  ASP30      -0.1239
      2  CA        79.4690   28.4060   86.6310 C.3    30  ASP30       0.1674
      3  C         80.9750   28.5020   86.5750 C.2    30  ASP30       0.2266
      4  O         81.6110   27.6960   85.8930 O.2    30  ASP30      -0.2867
      5  CB        79.0910   27.2280   87.5240 C.3    30  ASP30       0.1410
      6  CG        77.6230   27.2090   87.8850 C.2    30  ASP30       0.3668
      7  OD1       76.8550   28.0360   87.3490 O.co2  30  ASP30      -0.2456
      8  OD2       77.2370   26.3570   88.7150 O.co2  30  ASP30      -0.2456
      9  N         78.5170   32.5040   86.0720 N.3    49  MET49      -0.1245
     10  CA        77.9130   32.5060   87.4010 C.3    49  MET49       0.1570
     11  C         79.0650   32.3780   88.4120 C.2    49  MET49       0.2261
     12  O         79.7920   31.3770   88.4130 O.2    49  MET49      -0.2867
     13  CB        76.9640   31.3100   87.5300 C.3    49  MET49       0.0387
     14  CG        76.1720   31.2360   88.8240 C.3    49  MET49       0.0595
     15  SD        74.6570   32.1750   88.7480 S.3    49  MET49      -0.1393
     16  CE        73.5390   30.9700   88.0430 C.3    49  MET49       0.0692
     17  N         78.3690   23.2470   92.1100 N.3    55  PRO55      -0.2116
     18  CA        77.3470   22.3640   92.6830 C.3    55  PRO55       0.1372
     19  C         77.8160   20.9840   93.1510 C.2    55  PRO55       0.2244
     20  O         77.4240   20.5310   94.2290 O.2    55  PRO55      -0.2868
     21  CB        76.3100   22.2830   91.5680 C.3    55  PRO55       0.0268
     22  CG        76.3530   23.6700   91.0070 C.3    55  PRO55       0.0207
     23  CD        77.8470   23.9260   90.9060 C.3    55  PRO55       0.0892
     24  N         74.7730   33.8960   92.9810 N.3    87  LYS87      -0.1245
     25  CA        73.6760   33.1990   93.6670 C.3    87  LYS87       0.1561
     26  C         73.4930   33.7600   95.0790 C.2    87  LYS87       0.2260
     27  O         74.4270   34.2610   95.6820 O.2    87  LYS87      -0.2867
     28  CB        73.9980   31.7030   93.7340 C.3    87  LYS87       0.0271
     29  CG        73.7450   31.0150   92.3890 C.3    87  LYS87       0.0035
     30  CD        74.1310   29.5320   92.3820 C.3    87  LYS87       0.0206
     31  CE        73.2500   28.7510   91.4010 C.3    87  LYS87       0.1093
     32  NZ        74.0540   27.9030   90.5080 N.3    87  LYS87      -0.1314
     33  N         70.7390   35.2500   91.3220 N.3   108  ASP108     -0.1239
     34  CA        70.0890   33.9640   91.2270 C.3   108  ASP108      0.1674
     35  C         69.7140   33.4800   92.6190 C.2   108  ASP108      0.2266
     36  O         70.5780   33.0890   93.4020 O.2   108  ASP108     -0.2867
     37  CB        71.0040   32.9500   90.5430 C.3   108  ASP108      0.1410
     38  CG        70.3680   31.5720   90.4310 C.2   108  ASP108      0.3668
     39  OD1       69.1190   31.4860   90.3830 O.co2 108  ASP108     -0.2456
     40  OD2       71.1080   30.5660   90.3720 O.co2 108  ASP108     -0.2456
     41  N         70.3430   25.6670   95.2930 N.3   112  VAL112     -0.1245
     42  CA        71.5340   24.8460   95.4360 C.3   112  VAL112      0.1561
     43  C         72.2960   25.3590   96.6540 C.2   112  VAL112      0.2260
     44  O         73.2970   24.7770   97.0710 O.2   112  VAL112     -0.2867
     45  CB        72.4470   24.8950   94.1790 C.3   112  VAL112      0.0252
     46  CG1       71.6000   24.9990   92.9250 C.3   112  VAL112      0.0019
     47  CG2       73.4300   26.0400   94.2780 C.3   112  VAL112      0.0019
     48  N         64.4650   29.1330   85.4820 N.3   153  ARG153     -0.1245
     49  CA        65.3040   28.0540   85.0170 C.3   153  ARG153      0.1563
     50  C         64.6670   26.8060   85.5880 C.2   153  ARG153      0.2260
     51  O         64.3650   26.7200   86.7830 O.2   153  ARG153     -0.2867
     52  CB        66.7650   28.2200   85.4590 C.3   153  ARG153      0.0307
     53  CG        67.0650   27.9400   86.8950 C.3   153  ARG153      0.0489
     54  CD        68.5430   28.0800   87.1430 C.3   153  ARG153      0.2205
     55  NE        68.8950   27.5360   88.4430 N.pl3 153  ARG153     -0.0865
     56  CZ        68.4600   28.0240   89.5970 C.cat 153  ARG153      0.5346
     57  NH1       67.6530   29.0790   89.6170 N.pl3 153  ARG153      0.1354
     58  NH2       68.8280   27.4510   90.7350 N.pl3 153  ARG153      0.1354
     59  N         71.2700   19.3840   90.8300 N.3   158  ALA158     -0.1231
     60  CA        72.5480   20.0520   90.6660 C.3   158  ALA158      0.1694
     61  C         73.7200   19.1110   90.9370 C.2   158  ALA158      0.2593
     62  O         73.6630   18.2830   91.8360 O.2   158  ALA158     -0.2718
     63  CB        72.6180   21.2620   91.5830 C.3   158  ALA158      0.0304
     64  N         74.7660   19.2350   90.1260 N.am  159  GLY159     -0.1942
     65  CA        75.9670   18.4350   90.2950 C.3   159  GLY159      0.2014
     66  C         75.8810   16.9240   90.4120 C.2   159  GLY159      0.2640
     67  O         76.4840   16.3370   91.3050 O.2   159  GLY159     -0.2714
     68  N         75.1510   16.2790   89.5140 N.am  160  THR160     -0.1936
     69  CA        75.0520   14.8270   89.5540 C.3   160  THR160      0.2028
     70  C         75.3510   14.2250   88.1820 C.2   160  THR160      0.2642
     71  O         75.5300   13.0120   88.0460 O.2   160  THR160     -0.2714
     72  CB        73.6550   14.3690   90.0140 C.3   160  THR160      0.1808
     73  OG1       72.6560   14.9280   89.1560 O.3   160  THR160     -0.2208
     74  CG2       73.4000   14.8160   91.4350 C.3   160  THR160      0.0379
     75  N         75.4070   15.0860   87.1710 N.am  161  GLY161     -0.1954
     76  CA        75.6890   14.6310   85.8240 C.3   161  GLY161      0.1869
     77  C         74.5490   13.8480   85.2120 C.2   161  GLY161      0.2309
     78  O         74.7210   13.1700   84.1930 O.2   161  GLY161     -0.2863
     79  N         68.4420   23.4780   83.3650 N.3   218  ALA218     -0.1231
     80  CA        69.5580   23.4990   84.3010 C.3   218  ALA218      0.1694
     81  C         69.6090   22.2800   85.1880 C.2   218  ALA218      0.2593
     82  O         68.5780   21.7280   85.5460 O.2   218  ALA218     -0.2718
     83  CB        69.4720   24.7310   85.1730 C.3   218  ALA218      0.0304
     84  N         70.8170   21.8710   85.5550 N.am  219  GLY219     -0.1942
     85  CA        70.9730   20.7300   86.4360 C.3   219  GLY219      0.2014
     86  C         71.2030   19.3970   85.7560 C.2   219  GLY219      0.2639
     87  O         70.2810   18.8010   85.1930 O.2   219  GLY219     -0.2714
     88  N         72.4440   18.9250   85.7950 N.am  220  GLY220     -0.1939
     89  CA        72.7510   17.6350   85.2060 C.3   220  GLY220      0.2014
     90  C         73.3010   17.6050   83.7990 C.2   220  GLY220      0.2638
     91  O         73.6130   16.5360   83.2850 O.2   220  GLY220     -0.2714
     92  N         73.4220   18.7530   83.1540 N.am  221  VAL221     -0.1977
     93  CA        73.9570   18.7500   81.8070 C.3   221  VAL221      0.1596
     94  C         75.4590   18.5010   81.9070 C.2   221  VAL221      0.2287
     95  O         76.1890   19.2730   82.5280 O.2   221  VAL221     -0.2864
     96  CB        73.6500   20.0690   81.1080 C.3   221  VAL221      0.0276
     97  CG1       74.5090   20.2130   79.8650 C.3   221  VAL221      0.0022
     98  CG2       72.1860   20.1000   80.7320 C.3   221  VAL221      0.0022
     99  N         72.0670   26.1510   81.5720 N.3   239  PHE239     -0.1227
    100  CA        72.9970   26.5610   82.6130 C.3   239  PHE239      0.1736
    101  C         73.8560   25.3200   82.8170 C.2   239  PHE239      0.2595
    102  O         73.3260   24.2150   82.9890 O.2   239  PHE239     -0.2718
    103  CB        72.2910   26.8390   83.9410 C.3   239  PHE239      0.0547
    104  CG        71.7620   28.2360   84.0990 C.ar  239  PHE239     -0.0202
    105  CD1       70.4850   28.5650   83.6700 C.ar  239  PHE239     -0.0042
    106  CD2       72.5140   29.2040   84.7480 C.ar  239  PHE239     -0.0042
    107  CE1       69.9620   29.8370   83.8930 C.ar  239  PHE239     -0.0003
    108  CE2       72.0030   30.4790   84.9750 C.ar  239  PHE239     -0.0003
    109  CZ        70.7270   30.7980   84.5500 C.ar  239  PHE239     -0.0000
    110  N         75.1720   25.4860   82.7880 N.am  240  VAL240     -0.1966
    111  CA        76.0700   24.3610   83.0020 C.3   240  VAL240      0.1727
    112  C         77.0800   24.7730   84.0530 C.2   240  VAL240      0.2617
    113  O         77.7790   25.7710   83.8790 O.2   240  VAL240     -0.2715
    114  CB        76.8160   23.9780   81.7230 C.3   240  VAL240      0.0290
    115  CG1       77.7320   22.8110   81.9970 C.3   240  VAL240      0.0023
    116  CG2       75.8260   23.6230   80.6320 C.3   240  VAL240      0.0023
    117  N         77.1360   24.0200   85.1510 N.am  241  GLY241     -0.1940
    118  CA        78.0700   24.3320   86.2170 C.3   241  GLY241      0.2014
    119  C         79.1850   23.3120   86.3400 C.2   241  GLY241      0.2640
    120  O         80.3130   23.5200   85.8680 O.2   241  GLY241     -0.2714
    121  N         78.8480   22.1900   86.9630 N.am  242  SER242     -0.1935
    122  CA        79.7900   21.1030   87.1980 C.3   242  SER242      0.2055
    123  C         80.2400   20.3730   85.9370 C.2   242  SER242      0.2643
    124  O         81.4130   20.0330   85.7920 O.2   242  SER242     -0.2714
    125  CB        79.1650   20.0950   88.1650 C.3   242  SER242      0.2130
    126  OG        78.5510   20.7580   89.2560 O.3   242  SER242     -0.2179
    127  N         79.3010   20.1390   85.0280 N.am  243  GLY243     -0.1954
    128  CA        79.6010   19.4210   83.8000 C.3   243  GLY243      0.1869
    129  C         80.7780   19.8480   82.9350 C.2   243  GLY243      0.2309
    130  O         81.2830   19.0350   82.1550 O.2   243  GLY243     -0.2863
@<TRIPOS>BOND
     1    97    96    1
     2   116   114    1
     3    98    96    1
     4    96    93    1
     5    99   100    1
     6   114   115    1
     7   114   111    1
     8    93    94    1
     9    93    92    1
    10    94    95    2
    11   130   129    2
    12   100   101    1
    13   100   103    1
    14   110   101   am
    15   110   111    1
    16   101   102    2
    17   129   128    1
    18   111   112    1
    19    92    90   am
    20    91    90    2
    21    79    80    1
    22   105   107   ar
    23   105   104   ar
    24    90    89    1
    25   128   127    1
    26   113   112    2
    27   107   109   ar
    28   103   104    1
    29   112   117   am
    30   104   106   ar
    31    78    77    2
    32    80    83    1
    33    80    81    1
    34   109   108   ar
    35   106   108   ar
    36    49    52    1
    37    49    48    1
    38    49    50    1
    39   127   123   am
    40   117   118    1
    41    81    82    2
    42    81    84   am
    43    87    86    2
    44    89    88    1
    45    77    76    1
    46     1     2    1
    47    52    53    1
    48    84    85    1
    49    50    51    2
    50    86    88   am
    51    86    85    1
    52   124   123    2
    53    76    75    1
    54   120   119    2
    55     4     3    2
    56   123   122    1
    57     9    10    1
    58   118   119    1
    59   119   121   am
    60     3     2    1
    61     2     5    1
    62    53    54    1
    63   121   122    1
    64    54    55    1
    65    75    70   am
    66   122   125    1
    67     7     6   ar
    68    10    13    1
    69    10    11    1
    70     5     6    1
    71    13    14    1
    72     6     8   ar
    73    16    15    1
    74    71    70    2
    75   125   126    1
    76    70    69    1
    77    11    12    2
    78    55    56    2
    79    15    14    1
    80    73    72    1
    81    68    69    1
    82    68    66   am
    83    69    72    1
    84    56    57    1
    85    56    58    1
    86    72    74    1
    87    64    65    1
    88    64    61   am
    89    65    66    1
    90    40    38   ar
    91    39    38   ar
    92    66    67    2
    93    38    37    1
    94    32    31    1
    95    37    34    1
    96    60    59    1
    97    60    61    1
    98    60    63    1
    99    23    22    1
   100    23    17    1
   101    61    62    2
   102    22    21    1
   103    34    33    1
   104    34    35    1
   105    31    30    1
   106    21    18    1
   107    17    18    1
   108    30    29    1
   109    29    28    1
   110    35    36    2
   111    18    19    1
   112    46    45    1
   113    24    25    1
   114    19    20    2
   115    25    28    1
   116    25    26    1
   117    45    47    1
   118    45    42    1
   119    26    27    2
   120    41    42    1
   121    42    43    1
   122    43    44    2
