@<TRIPOS>MOLECULE
tmp/2isvA00.pdb
 95 92 0 0 0
SMALL
GASTEIGER

@<TRIPOS>ATOM
      1  N        -38.9360  -17.5590  -20.7230 N.3    23  ASN23      -0.1240
      2  CA       -39.0310  -17.5250  -19.2670 C.3    23  ASN23       0.1653
      3  C        -39.5430  -18.9020  -18.7570 C.2    23  ASN23       0.2266
      4  O        -40.4670  -19.4900  -19.3590 O.2    23  ASN23      -0.2867
      5  CB       -39.9680  -16.3990  -18.8120 C.3    23  ASN23       0.1155
      6  CG       -39.3510  -15.0100  -18.9610 C.2    23  ASN23       0.2627
      7  OD1      -39.4170  -14.4090  -20.0340 O.2    23  ASN23      -0.2716
      8  ND2      -38.7630  -14.4910  -17.8800 N.am   23  ASN23      -0.0877
      9  N        -33.1660  -11.7440  -16.3140 N.3    82  ASP82      -0.1225
     10  CA       -34.4740  -11.0560  -16.5560 C.3    82  ASP82       0.1805
     11  C        -35.0500  -10.0620  -15.4940 C.2    82  ASP82       0.2597
     12  O        -35.4920  -10.4410  -14.4080 O.2    82  ASP82      -0.2718
     13  CB       -35.5590  -12.0650  -16.8570 C.3    82  ASP82       0.1424
     14  CG       -36.6030  -11.4870  -17.8430 C.2    82  ASP82       0.3668
     15  OD1      -37.6100  -12.1320  -18.2130 O.co2  82  ASP82      -0.2456
     16  OD2      -36.4070  -10.3580  -18.2710 O.co2  82  ASP82      -0.2456
     17  N        -35.0460   -8.7800  -15.8700 N.am   83  HIS83      -0.1975
     18  CA       -35.5130   -7.6610  -15.0470 C.3    83  HIS83       0.1656
     19  C        -34.9890   -7.6000  -13.6260 C.2    83  HIS83       0.2291
     20  O        -35.7540   -7.4140  -12.6610 O.2    83  HIS83      -0.2864
     21  CB       -37.0420   -7.5950  -15.0630 C.3    83  HIS83       0.0771
     22  CG       -37.6030   -7.2590  -16.4060 C.ar   83  HIS83       0.0820
     23  ND1      -37.4260   -6.0250  -17.0030 N.ar   83  HIS83      -0.2267
     24  CD2      -38.3250   -8.0050  -17.2740 C.ar   83  HIS83       0.1154
     25  CE1      -38.0250   -6.0210  -18.1890 C.ar   83  HIS83       0.1986
     26  NE2      -38.5770   -7.2070  -18.3710 N.ar   83  HIS83      -0.2212
     27  N        -44.4980   -4.1740  -25.7530 N.3   162  SER162     -0.1202
     28  CA       -44.8260   -4.3320  -24.3300 C.3   162  SER162      0.2020
     29  C        -45.1520   -5.7500  -23.7870 C.2   162  SER162      0.2619
     30  O        -45.2470   -6.7290  -24.5260 O.2   162  SER162     -0.2717
     31  CB       -46.0040   -3.3980  -23.9920 C.3   162  SER162      0.2103
     32  OG       -45.6970   -2.0330  -24.2540 O.3   162  SER162     -0.2182
     33  N        -45.3410   -5.8160  -22.4690 N.am  163  HIS163     -0.1961
     34  CA       -45.6670   -7.0430  -21.7430 C.3   163  HIS163      0.1787
     35  C        -47.1220   -7.4940  -21.7730 C.2   163  HIS163      0.2620
     36  O        -48.0480   -6.7210  -22.0660 O.2   163  HIS163     -0.2715
     37  CB       -45.2890   -6.8760  -20.2820 C.3   163  HIS163      0.0785
     38  CG       -43.8270   -7.0270  -20.0230 C.ar  163  HIS163      0.0821
     39  ND1      -43.2240   -6.5550  -18.8710 N.ar  163  HIS163     -0.2267
     40  CD2      -42.8600   -7.6520  -20.7270 C.ar  163  HIS163      0.1154
     41  CE1      -41.9480   -6.8930  -18.8820 C.ar  163  HIS163      0.1986
     42  NE2      -41.7020   -7.5620  -19.9970 N.ar  163  HIS163     -0.2212
     43  N        -47.2950   -8.7620  -21.4180 N.am  164  GLY164     -0.1954
     44  CA       -48.6080   -9.3810  -21.3290 C.3   164  GLY164      0.1869
     45  C        -49.2460   -9.7950  -22.6310 C.2   164  GLY164      0.2309
     46  O        -48.6050   -9.8070  -23.6860 O.2   164  GLY164     -0.2863
     47  N        -37.8490   -6.9510  -25.8610 N.3   186  HIS186     -0.1226
     48  CA       -38.6980   -7.5370  -24.8300 C.3   186  HIS186      0.1752
     49  C        -40.1220   -7.5790  -25.4230 C.2   186  HIS186      0.2596
     50  O        -40.2800   -7.3850  -26.6350 O.2   186  HIS186     -0.2718
     51  CB       -38.6400   -6.7530  -23.5180 C.3   186  HIS186      0.0759
     52  CG       -37.3490   -6.9330  -22.7970 C.ar  186  HIS186      0.0818
     53  ND1      -37.2630   -7.0660  -21.4290 N.ar  186  HIS186     -0.2268
     54  CD2      -36.0760   -7.0290  -23.2570 C.ar  186  HIS186      0.1154
     55  CE1      -36.0030   -7.2420  -21.0740 C.ar  186  HIS186      0.1986
     56  NE2      -35.2600   -7.2240  -22.1700 N.ar  186  HIS186     -0.2212
     57  N        -41.1270   -7.8740  -24.5860 N.am  187  GLY187     -0.1957
     58  CA       -42.5200   -7.9810  -25.0150 C.3   187  GLY187      0.1869
     59  C        -42.8000   -8.5420  -26.3980 C.2   187  GLY187      0.2309
     60  O        -43.6860   -8.0730  -27.1220 O.2   187  GLY187     -0.2863
     61  N        -43.9750  -11.5760  -27.2610 N.3   189  SER189     -0.1217
     62  CA       -44.8740  -12.7130  -27.3620 C.3   189  SER189      0.1889
     63  C        -45.8180  -12.3270  -28.4680 C.2   189  SER189      0.2288
     64  O        -46.0990  -11.1370  -28.6310 O.2   189  SER189     -0.2866
     65  CB       -45.6680  -12.9620  -26.0620 C.3   189  SER189      0.2089
     66  OG       -44.9950  -13.8740  -25.1760 O.3   189  SER189     -0.2183
     67  N        -37.3890  -12.0710  -26.2180 N.3   229  ASN229     -0.1225
     68  CA       -38.0270  -12.3690  -24.9430 C.3   229  ASN229      0.1785
     69  C        -39.4750  -12.8400  -25.1180 C.2   229  ASN229      0.2597
     70  O        -40.3440  -12.0740  -25.5570 O.2   229  ASN229     -0.2718
     71  CB       -37.9950  -11.1470  -24.0440 C.3   229  ASN229      0.1169
     72  CG       -36.6470  -10.9150  -23.4020 C.2   229  ASN229      0.2627
     73  OD1      -35.5940  -11.3030  -23.9360 O.2   229  ASN229     -0.2716
     74  ND2      -36.6600  -10.2790  -22.2450 N.am  229  ASN229     -0.0877
     75  N        -39.7310  -14.1010  -24.7800 N.am  230  VAL230     -0.1966
     76  CA       -41.0690  -14.7100  -24.9010 C.3   230  VAL230      0.1727
     77  C        -41.4600  -15.3260  -23.5520 C.2   230  VAL230      0.2616
     78  O        -40.6640  -16.0020  -22.9150 O.2   230  VAL230     -0.2715
     79  CB       -41.0400  -15.7430  -25.9890 C.3   230  VAL230      0.0290
     80  CG1      -42.3150  -16.5360  -26.0130 C.3   230  VAL230      0.0023
     81  CG2      -40.7770  -15.0510  -27.2580 C.3   230  VAL230      0.0023
     82  N        -42.6820  -15.0870  -23.1150 N.am  231  ASP231     -0.1957
     83  CA       -43.0880  -15.5060  -21.7740 C.3   231  ASP231      0.1840
     84  C        -44.5740  -15.7560  -21.8000 C.2   231  ASP231      0.2622
     85  O        -45.0210  -16.8580  -21.5280 O.2   231  ASP231     -0.2715
     86  CB       -42.7380  -14.3680  -20.7810 C.3   231  ASP231      0.1450
     87  CG       -43.0750  -14.7250  -19.3370 C.2   231  ASP231      0.3671
     88  OD1      -42.7190  -13.9860  -18.3820 O.co2 231  ASP231     -0.2456
     89  OD2      -43.7010  -15.7660  -19.1540 O.co2 231  ASP231     -0.2456
     90  N        -45.3570  -14.7330  -22.1380 N.am  232  SER232     -0.1950
     91  CA       -46.8050  -14.8900  -22.1960 C.3   232  SER232      0.1924
     92  C        -47.2470  -16.0580  -23.1140 C.2   232  SER232      0.2314
     93  O        -48.2470  -16.7810  -22.8390 O.2   232  SER232     -0.2863
     94  CB       -47.4690  -13.5690  -22.6450 C.3   232  SER232      0.2116
     95  OG       -47.0230  -12.4370  -21.8910 O.3   232  SER232     -0.2180
@<TRIPOS>BOND
     1    64    63    2
     2    63    62    1
     3    62    61    1
     4    62    65    1
     5    81    79    1
     6    60    59    2
     7    50    49    2
     8    59    58    1
     9    67    68    1
    10    65    66    1
    11    80    79    1
    12    79    76    1
    13    47    48    1
    14    27    28    1
    15    70    69    2
    16    49    48    1
    17    49    57   am
    18    69    68    1
    19    69    75   am
    20    58    57    1
    21    68    71    1
    22    76    75    1
    23    76    77    1
    24    48    51    1
    25    30    29    2
    26    28    31    1
    27    28    29    1
    28    32    31    1
    29    71    72    1
    30    73    72    2
    31    29    33   am
    32    46    45    2
    33    77    82   am
    34    77    78    2
    35    51    52    1
    36    72    74   am
    37    54    52   ar
    38    54    56   ar
    39    82    83    1
    40    92    93    2
    41    92    91    1
    42    52    53   ar
    43    94    91    1
    44    94    95    1
    45    45    44    1
    46    33    34    1
    47    91    90    1
    48    56    55   ar
    49    90    84   am
    50    36    35    2
    51    84    83    1
    52    84    85    2
    53    83    86    1
    54    35    34    1
    55    35    43   am
    56    34    37    1
    57    53    55   ar
    58    43    44    1
    59    86    87    1
    60    40    38   ar
    61    40    42   ar
    62     1     2    1
    63    37    38    1
    64     7     6    2
    65    38    39   ar
    66    42    41   ar
    67     4     3    2
    68    87    89   ar
    69    87    88   ar
    70     2     5    1
    71     2     3    1
    72     6     5    1
    73     6     8   am
    74    41    39   ar
    75    26    25   ar
    76    26    24   ar
    77    16    14   ar
    78    15    14   ar
    79    25    23   ar
    80    14    13    1
    81    24    22   ar
    82    23    22   ar
    83    13    10    1
    84    10     9    1
    85    10    11    1
    86    22    21    1
    87    17    11   am
    88    17    18    1
    89    11    12    2
    90    21    18    1
    91    18    19    1
    92    19    20    2
