@<TRIPOS>MOLECULE
tmp/2iswA00.pdb
 106 101 0 0 0
SMALL
GASTEIGER

@<TRIPOS>ATOM
      1  N        -24.8420    7.9690   56.3610 N.3    23  ASN23      -0.1240
      2  CA       -24.4750    7.5430   57.7090 C.3    23  ASN23       0.1653
      3  C        -25.1540    6.2140   58.0040 C.2    23  ASN23       0.2266
      4  O        -26.3060    6.0140   57.6460 O.2    23  ASN23      -0.2867
      5  CB       -24.9340    8.5660   58.7300 C.3    23  ASN23       0.1155
      6  CG       -24.1820    9.8330   58.6200 C.2    23  ASN23       0.2627
      7  OD1      -24.3550   10.5980   57.6570 O.2    23  ASN23      -0.2716
      8  ND2      -23.3090   10.0650   59.5620 N.am   23  ASN23      -0.0877
      9  N        -20.6260    6.2770   56.0530 N.3    47  GLN47      -0.1245
     10  CA       -19.9290    7.0340   57.0760 C.3    47  GLN47       0.1566
     11  C        -20.4740    6.7240   58.4400 C.2    47  GLN47       0.2260
     12  O        -21.6680    6.4370   58.6000 O.2    47  GLN47      -0.2867
     13  CB       -19.9210    8.5190   56.7600 C.3    47  GLN47       0.0367
     14  CG       -21.2020    9.1440   56.3090 C.3    47  GLN47       0.0905
     15  CD       -21.0190   10.6270   55.9150 C.2    47  GLN47       0.2608
     16  OE1      -19.9750   11.0440   55.4180 O.2    47  GLN47      -0.2717
     17  NE2      -22.0590   11.4020   56.1070 N.am   47  GLN47      -0.0878
     18  N        -17.3120   10.4000   60.0890 N.3    82  ASP82      -0.1225
     19  CA       -17.9970   11.6760   59.9320 C.3    82  ASP82       0.1805
     20  C        -17.8280   12.5340   61.1840 C.2    82  ASP82       0.2597
     21  O        -17.9080   12.0120   62.2980 O.2    82  ASP82      -0.2718
     22  CB       -19.4660   11.3860   59.6990 C.3    82  ASP82       0.1424
     23  CG       -20.2460   12.5970   59.2270 C.2    82  ASP82       0.3668
     24  OD1      -21.4920   12.5570   59.3510 O.co2  82  ASP82      -0.2456
     25  OD2      -19.6250   13.5670   58.7140 O.co2  82  ASP82      -0.2456
     26  N        -17.5850   13.8230   60.9960 N.am   83  HIS83      -0.1975
     27  CA       -17.3950   14.7940   62.0990 C.3    83  HIS83       0.1656
     28  C        -16.4410   14.4040   63.2290 C.2    83  HIS83       0.2291
     29  O        -16.7850   14.4710   64.4050 O.2    83  HIS83      -0.2864
     30  CB       -18.7570   15.1930   62.6750 C.3    83  HIS83       0.0771
     31  CG       -19.5650   16.0220   61.7230 C.ar   83  HIS83       0.0820
     32  ND1      -19.2030   17.3080   61.3670 N.ar   83  HIS83      -0.2267
     33  CD2      -20.6280   15.7040   60.9480 C.ar   83  HIS83       0.1154
     34  CE1      -20.0020   17.7430   60.4090 C.ar   83  HIS83       0.1986
     35  NE2      -20.8720   16.7870   60.1360 N.ar   83  HIS83      -0.2212
     36  N        -27.7720   20.5650   59.6930 N.3   167  HIS167     -0.1226
     37  CA       -28.1390   19.2050   60.0760 C.3   167  HIS167      0.1752
     38  C        -29.5750   19.1090   60.5180 C.2   167  HIS167      0.2596
     39  O        -30.1010   20.0360   61.1270 O.2   167  HIS167     -0.2718
     40  CB       -27.2480   18.7280   61.2160 C.3   167  HIS167      0.0759
     41  CG       -25.8540   18.4290   60.7850 C.ar  167  HIS167      0.0818
     42  ND1      -24.7790   18.4960   61.6440 N.ar  167  HIS167     -0.2268
     43  CD2      -25.3570   18.0790   59.5760 C.ar  167  HIS167      0.1154
     44  CE1      -23.6760   18.2060   60.9790 C.ar  167  HIS167      0.1986
     45  NE2      -24.0000   17.9500   59.7240 N.ar  167  HIS167     -0.2212
     46  N        -30.2190   17.9930   60.2060 N.am  168  GLY168     -0.1957
     47  CA       -31.5960   17.8220   60.6590 C.3   168  GLY168      0.1869
     48  C        -32.6990   17.8960   59.6250 C.2   168  GLY168      0.2309
     49  O        -32.4730   18.2410   58.4460 O.2   168  GLY168     -0.2863
     50  N        -34.5900   22.1470   58.0530 N.3   171  LYS171     -0.1245
     51  CA       -33.5770   23.0520   57.5060 C.3   171  LYS171      0.1561
     52  C        -34.0760   24.4300   57.0900 C.2   171  LYS171      0.2260
     53  O        -33.2910   25.3930   57.0980 O.2   171  LYS171     -0.2867
     54  CB       -32.8730   22.4050   56.3100 C.3   171  LYS171      0.0271
     55  CG       -32.2830   21.0280   56.5680 C.3   171  LYS171      0.0035
     56  CD       -31.5900   20.5370   55.2870 C.3   171  LYS171      0.0206
     57  CE       -31.2810   19.0310   55.3380 C.3   171  LYS171      0.1093
     58  NZ       -30.4910   18.6530   56.5500 N.3   171  LYS171     -0.1314
     59  N        -22.6470   19.0920   53.5040 N.3   195  HIS195     -0.1226
     60  CA       -23.2440   18.5050   54.7120 C.3   195  HIS195      0.1752
     61  C        -24.7080   18.9290   54.8100 C.2   195  HIS195      0.2597
     62  O        -25.1350   19.8480   54.1050 O.2   195  HIS195     -0.2718
     63  CB       -22.4720   18.9990   55.9720 C.3   195  HIS195      0.0759
     64  CG       -21.1590   18.3020   56.1810 C.ar  195  HIS195      0.0818
     65  ND1      -20.8860   17.5540   57.3050 N.ar  195  HIS195     -0.2268
     66  CD2      -20.0620   18.1930   55.3910 C.ar  195  HIS195      0.1154
     67  CE1      -19.6850   17.0140   57.2040 C.ar  195  HIS195      0.1986
     68  NE2      -19.1600   17.3840   56.0510 N.ar  195  HIS195     -0.2212
     69  N        -25.4700   18.2490   55.6610 N.am  196  GLY196     -0.1942
     70  CA       -26.8730   18.5970   55.8690 C.3   196  GLY196      0.2014
     71  C        -27.6750   18.6350   54.5860 C.2   196  GLY196      0.2640
     72  O        -28.4820   19.5490   54.3690 O.2   196  GLY196     -0.2714
     73  N        -27.5120   17.5920   53.7720 N.am  197  SER197     -0.1935
     74  CA       -28.1670   17.5140   52.4670 C.3   197  SER197      0.2055
     75  C        -29.3120   16.5540   52.2470 C.2   197  SER197      0.2643
     76  O        -29.5770   16.1890   51.0990 O.2   197  SER197     -0.2714
     77  CB       -27.0950   17.2400   51.4080 C.3   197  SER197      0.2130
     78  OG       -26.1800   18.3240   51.3880 O.3   197  SER197     -0.2179
     79  N        -29.9440   16.0520   53.3160 N.am  198  SER198     -0.1949
     80  CA       -31.1110   15.1930   53.1130 C.3   198  SER198      0.1924
     81  C        -32.1730   16.1290   52.4690 C.2   198  SER198      0.2314
     82  O        -32.1660   17.3490   52.7250 O.2   198  SER198     -0.2863
     83  CB       -31.6680   14.6680   54.4580 C.3   198  SER198      0.2116
     84  OG       -30.7810   13.7070   55.0240 O.3   198  SER198     -0.2180
     85  N        -23.7050   14.4680   51.8430 N.3   238  ASN238     -0.1240
     86  CA       -23.9750   13.7340   53.0760 C.3   238  ASN238      0.1653
     87  C        -25.4570   13.5760   53.2980 C.2   238  ASN238      0.2266
     88  O        -26.1870   14.5710   53.3190 O.2   238  ASN238     -0.2867
     89  CB       -23.3510   14.4560   54.2700 C.3   238  ASN238      0.1155
     90  CG       -21.8110   14.4010   54.2800 C.2   238  ASN238      0.2627
     91  OD1      -21.1770   14.0390   53.2990 O.2   238  ASN238     -0.2716
     92  ND2      -21.2120   14.7950   55.4060 N.am  238  ASN238     -0.0877
     93  N        -28.2770   11.6880   55.9070 N.3   240  ASP240     -0.1225
     94  CA       -28.5090   10.9160   57.1210 C.3   240  ASP240      0.1805
     95  C        -30.0180   10.9350   57.5370 C.2   240  ASP240      0.2598
     96  O        -30.6620    9.8690   57.6260 O.2   240  ASP240     -0.2718
     97  CB       -27.5820   11.4900   58.1950 C.3   240  ASP240      0.1424
     98  CG       -27.7130   10.8130   59.5460 C.2   240  ASP240      0.3668
     99  OD1      -27.2420   11.4020   60.5470 O.co2 240  ASP240     -0.2456
    100  OD2      -28.2580    9.6980   59.6190 O.co2 240  ASP240     -0.2456
    101  N        -30.5950   12.1240   57.7360 N.am  241  SER241     -0.1952
    102  CA       -32.0080   12.2260   58.1800 C.3   241  SER241      0.1924
    103  C        -32.9880   11.5400   57.2490 C.2   241  SER241      0.2314
    104  O        -33.9680   10.9500   57.6970 O.2   241  SER241     -0.2863
    105  CB       -32.4270   13.6690   58.3080 C.3   241  SER241      0.2116
    106  OG       -31.6160   14.2870   59.2920 O.3   241  SER241     -0.2180
@<TRIPOS>BOND
     1    76    75    2
     2    78    77    1
     3    77    74    1
     4    85    86    1
     5    75    74    1
     6    75    79   am
     7    74    73    1
     8    81    82    2
     9    81    80    1
    10    86    87    1
    11    86    89    1
    12    80    79    1
    13    80    83    1
    14    87    88    2
    15    91    90    2
    16    59    60    1
    17    73    71   am
    18    62    61    2
    19    89    90    1
    20    90    92   am
    21    72    71    2
    22    83    84    1
    23    71    70    1
    24    60    61    1
    25    60    63    1
    26    61    69   am
    27    56    57    1
    28    56    55    1
    29    57    58    1
    30    66    68   ar
    31    66    64   ar
    32    16    15    2
    33    69    70    1
    34    93    94    1
    35    15    17   am
    36    15    14    1
    37    63    64    1
    38    68    67   ar
    39     9    10    1
    40    64    65   ar
    41    14    13    1
    42    54    55    1
    43    54    51    1
    44     1     2    1
    45    13    10    1
    46    10    11    1
    47    52    53    2
    48    52    51    1
    49    94    95    1
    50    94    97    1
    51    67    65   ar
    52   103   104    2
    53   103   102    1
    54    51    50    1
    55    95    96    2
    56    95   101   am
    57     4     3    2
    58     7     6    2
    59     2     3    1
    60     2     5    1
    61   101   102    1
    62   102   105    1
    63    97    98    1
    64   105   106    1
    65    11    12    2
    66    49    48    2
    67     6     5    1
    68     6     8   am
    69    25    23   ar
    70    23    24   ar
    71    23    22    1
    72    98   100   ar
    73    98    99   ar
    74    43    45   ar
    75    43    41   ar
    76    48    47    1
    77    36    37    1
    78    22    19    1
    79    45    44   ar
    80    19    18    1
    81    19    20    1
    82    37    38    1
    83    37    40    1
    84    35    34   ar
    85    35    33   ar
    86    46    38   am
    87    46    47    1
    88    34    32   ar
    89    38    39    2
    90    41    40    1
    91    41    42   ar
    92    33    31   ar
    93    44    42   ar
    94    26    20   am
    95    26    27    1
    96    20    21    2
    97    32    31   ar
    98    31    30    1
    99    27    30    1
   100    27    28    1
   101    28    29    2
