@<TRIPOS>MOLECULE
tmp/2it4A00.pdb
 116 113 0 0 0
SMALL
GASTEIGER

@<TRIPOS>ATOM
      1  N         11.5840   25.6050   19.3610 N.3    87  PHE87      -0.1227
      2  CA        11.7390   25.6740   17.9080 C.3    87  PHE87       0.1736
      3  C         13.0590   26.1990   17.4190 C.2    87  PHE87       0.2595
      4  O         13.4210   25.9800   16.2690 O.2    87  PHE87      -0.2718
      5  CB        10.5650   26.4250   17.2540 C.3    87  PHE87       0.0547
      6  CG        10.6260   27.9240   17.4160 C.ar   87  PHE87      -0.0202
      7  CD1       10.0470   28.5380   18.5200 C.ar   87  PHE87      -0.0042
      8  CD2       11.2940   28.7080   16.4730 C.ar   87  PHE87      -0.0042
      9  CE1       10.0950   29.9470   18.6600 C.ar   87  PHE87      -0.0003
     10  CE2       11.3540   30.0890   16.6050 C.ar   87  PHE87      -0.0003
     11  CZ        10.7300   30.7050   17.6940 C.ar   87  PHE87      -0.0000
     12  N         13.7740   26.9380   18.2670 N.am   88  GLN88      -0.1979
     13  CA        15.0080   27.5880   17.8290 C.3    88  GLN88       0.1601
     14  C         15.9270   27.9370   18.9790 C.2    88  GLN88       0.2287
     15  O         15.4630   28.1830   20.0950 O.2    88  GLN88      -0.2864
     16  CB        14.6730   28.8480   17.0160 C.3    88  GLN88       0.0394
     17  CG        15.8720   29.5640   16.3940 C.3    88  GLN88       0.0908
     18  CD        15.4210   30.6750   15.5440 C.2    88  GLN88       0.2608
     19  OE1       14.9420   30.4610   14.4330 O.2    88  GLN88      -0.2717
     20  NE2       15.5190   31.8780   16.0530 N.am   88  GLN88      -0.0878
     21  N         19.5370   30.6710   19.0890 N.3    90  HIS90      -0.1241
     22  CA        20.4460   31.5280   18.3350 C.3    90  HIS90       0.1621
     23  C         21.1480   32.4710   19.3090 C.2    90  HIS90       0.2264
     24  O         20.7900   32.5280   20.4620 O.2    90  HIS90      -0.2867
     25  CB        19.7090   32.3630   17.2540 C.3    90  HIS90       0.0745
     26  CG        18.7480   33.3700   17.8060 C.ar   90  HIS90       0.0817
     27  ND1       17.3850   33.2130   17.7040 N.ar   90  HIS90      -0.2268
     28  CD2       18.9460   34.5400   18.4590 C.ar   90  HIS90       0.1154
     29  CE1       16.7820   34.2530   18.2480 C.ar   90  HIS90       0.1986
     30  NE2       17.7050   35.0670   18.7280 N.ar   90  HIS90      -0.2212
     31  N         23.1480   36.5010   20.0430 N.3    92  HIS92      -0.1241
     32  CA        23.4630   37.8660   19.6530 C.3    92  HIS92       0.1621
     33  C         24.8420   38.1550   20.1460 C.2    92  HIS92       0.2264
     34  O         25.2290   37.6580   21.1890 O.2    92  HIS92      -0.2867
     35  CB        22.4720   38.8600   20.2820 C.3    92  HIS92       0.0745
     36  CG        21.0620   38.6360   19.8370 C.ar   92  HIS92       0.0817
     37  ND1       20.5210   39.2720   18.7440 N.ar   92  HIS92      -0.2268
     38  CD2       20.1090   37.7840   20.2890 C.ar   92  HIS92       0.1154
     39  CE1       19.2770   38.8580   18.5660 C.ar   92  HIS92       0.1986
     40  NE2       19.0020   37.9520   19.4880 N.ar   92  HIS92      -0.2212
     41  N         19.6420   33.1800   23.0280 N.3   115  HIS115     -0.1241
     42  CA        18.1840   33.0860   23.1070 C.3   115  HIS115      0.1621
     43  C         17.7010   31.7050   22.7290 C.2   115  HIS115      0.2264
     44  O         17.9860   31.2450   21.6410 O.2   115  HIS115     -0.2867
     45  CB        17.5020   34.1100   22.2300 C.3   115  HIS115      0.0745
     46  CG        17.7750   35.5180   22.6550 C.ar  115  HIS115      0.0817
     47  ND1       17.7350   36.5690   21.7770 N.ar  115  HIS115     -0.2268
     48  CD2       18.1110   36.0400   23.8610 C.ar  115  HIS115      0.1154
     49  CE1       18.0330   37.6890   22.4200 C.ar  115  HIS115      0.1986
     50  NE2       18.2670   37.3960   23.6870 N.ar  115  HIS115     -0.2212
     51  N         14.2180   29.6980   22.1190 N.3   117  ALA117     -0.1245
     52  CA        12.8570   30.1230   21.7710 C.3   117  ALA117      0.1562
     53  C         11.8090   28.9980   21.6510 C.2   117  ALA117      0.2260
     54  O         12.0640   27.9310   21.0610 O.2   117  ALA117     -0.2867
     55  CB        12.8900   30.9710   20.4900 C.3   117  ALA117      0.0290
     56  N          4.9510   33.4910   22.5310 N.3   137  LEU137     -0.1245
     57  CA         6.3350   33.0080   22.6390 C.3   137  LEU137      0.1561
     58  C          6.8760   33.0530   24.0730 C.2   137  LEU137      0.2260
     59  O          6.4130   33.8450   24.8910 O.2   137  LEU137     -0.2867
     60  CB         7.2630   33.7820   21.6940 C.3   137  LEU137      0.0270
     61  CG         6.8300   33.8520   20.2110 C.3   137  LEU137      0.0019
     62  CD1        7.7940   34.6950   19.3480 C.3   137  LEU137      0.0001
     63  CD2        6.6260   32.4440   19.5370 C.3   137  LEU137      0.0001
     64  N         10.8420   32.8490   25.7340 N.3   139  VAL139     -0.1245
     65  CA        12.2410   32.8260   25.3170 C.3   139  VAL139      0.1561
     66  C         13.0970   32.9500   26.5580 C.2   139  VAL139      0.2260
     67  O         12.9470   33.9060   27.3250 O.2   139  VAL139     -0.2867
     68  CB        12.5800   33.9990   24.3480 C.3   139  VAL139      0.0252
     69  CG1       14.0630   33.9970   23.9590 C.3   139  VAL139      0.0019
     70  CG2       11.6780   33.9620   23.0850 C.3   139  VAL139      0.0019
     71  N         10.2080   40.2930   20.4480 N.3   194  LEU194     -0.1231
     72  CA        11.3270   39.8970   19.6130 C.3   194  LEU194      0.1693
     73  C         12.2920   41.0770   19.5490 C.2   194  LEU194      0.2593
     74  O         11.8820   42.2350   19.5300 O.2   194  LEU194     -0.2718
     75  CB        10.8380   39.5300   18.2060 C.3   194  LEU194      0.0284
     76  CG         9.7920   38.4070   18.0900 C.3   194  LEU194      0.0019
     77  CD1        9.3500   38.2830   16.6510 C.3   194  LEU194      0.0001
     78  CD2       10.3210   37.0940   18.5830 C.3   194  LEU194      0.0001
     79  N         13.5780   40.8020   19.5080 N.am  195  THR195     -0.1939
     80  CA        14.5410   41.9030   19.5690 C.3   195  THR195      0.2028
     81  C         15.0200   42.3950   18.2090 C.2   195  THR195      0.2642
     82  O         15.9030   43.2310   18.1360 O.2   195  THR195     -0.2714
     83  CB        15.7160   41.5690   20.4950 C.3   195  THR195      0.1808
     84  OG1       16.5460   40.5760   19.8790 O.3   195  THR195     -0.2208
     85  CG2       15.1990   41.0390   21.8870 C.3   195  THR195      0.0379
     86  N         14.4550   41.8520   17.1390 N.am  196  HIS196     -0.1973
     87  CA        14.6240   42.4210   15.8090 C.3   196  HIS196      0.1656
     88  C         13.3180   42.2660   15.0040 C.2   196  HIS196      0.2291
     89  O         12.4090   41.5460   15.4480 O.2   196  HIS196     -0.2864
     90  CB        15.8330   41.8080   15.0710 C.3   196  HIS196      0.0771
     91  CG        15.7140   40.3380   14.8050 C.ar  196  HIS196      0.0820
     92  ND1       14.7790   39.8120   13.9460 N.ar  196  HIS196     -0.2267
     93  CD2       16.4360   39.2870   15.2610 C.ar  196  HIS196      0.1154
     94  CE1       14.9280   38.5020   13.8790 C.ar  196  HIS196      0.1986
     95  NE2       15.9280   38.1570   14.6680 N.ar  196  HIS196     -0.2212
     96  N          6.6310   38.0110   23.4100 N.3   203  VAL203     -0.1245
     97  CA         7.5760   37.2010   24.1780 C.3   203  VAL203      0.1561
     98  C          7.4520   37.3580   25.6960 C.2   203  VAL203      0.2260
     99  O          7.5480   38.4730   26.2230 O.2   203  VAL203     -0.2867
    100  CB         9.0370   37.5000   23.7670 C.3   203  VAL203      0.0252
    101  CG1        9.9930   36.6350   24.5730 C.3   203  VAL203      0.0019
    102  CG2        9.2580   37.2970   22.2540 C.3   203  VAL203      0.0019
    103  N          9.8630   36.8560   28.3560 N.3   205  TRP205     -0.1241
    104  CA        11.2790   36.6020   28.5610 C.3   205  TRP205      0.1605
    105  C         11.5940   35.8840   29.8480 C.2   205  TRP205      0.2264
    106  O         11.1060   36.2640   30.9200 O.2   205  TRP205     -0.2867
    107  CB        12.0460   37.9070   28.5300 C.3   205  TRP205      0.0550
    108  CG        12.2230   38.3740   27.1310 C.ar  205  TRP205      0.0003
    109  CD1       11.4750   39.3150   26.4620 C.ar  205  TRP205      0.0946
    110  CD2       13.2020   37.9030   26.2190 C.ar  205  TRP205      0.0152
    111  NE1       11.9440   39.4510   25.1770 N.ar  205  TRP205     -0.2442
    112  CE2       13.0020   38.5920   25.0010 C.ar  205  TRP205      0.0810
    113  CE3       14.2360   36.9460   26.3100 C.ar  205  TRP205      0.0012
    114  CZ2       13.7980   38.3700   23.8770 C.ar  205  TRP205      0.0191
    115  CZ3       15.0320   36.7160   25.1930 C.ar  205  TRP205      0.0001
    116  CH2       14.8170   37.4390   23.9880 C.ar  205  TRP205      0.0015
@<TRIPOS>BOND
     1    94    92   ar
     2    94    95   ar
     3    92    91   ar
     4    19    18    2
     5    95    93   ar
     6    91    90    1
     7    91    93   ar
     8    88    89    2
     9    88    87    1
    10    90    87    1
    11    18    20   am
    12    18    17    1
    13    87    86    1
    14     4     3    2
    15    17    16    1
    16     8    10   ar
    17     8     6   ar
    18    10    11   ar
    19    77    76    1
    20    16    13    1
    21    86    81   am
    22     5     6    1
    23     5     2    1
    24    25    26    1
    25    25    22    1
    26     6     7   ar
    27     3     2    1
    28     3    12   am
    29    11     9   ar
    30    27    26   ar
    31    27    29   ar
    32    26    28   ar
    33    13    12    1
    34    13    14    1
    35     2     1    1
    36    76    75    1
    37    76    78    1
    38    82    81    2
    39    75    72    1
    40    81    80    1
    41    29    30   ar
    42    22    21    1
    43    22    23    1
    44    28    30   ar
    45     7     9   ar
    46    39    37   ar
    47    39    40   ar
    48    37    36   ar
    49    14    15    2
    50    23    24    2
    51    62    61    1
    52    40    38   ar
    53    79    73   am
    54    79    80    1
    55    74    73    2
    56    63    61    1
    57    73    72    1
    58    80    83    1
    59    72    71    1
    60    32    31    1
    61    32    33    1
    62    32    35    1
    63    36    35    1
    64    36    38   ar
    65    84    83    1
    66    33    34    2
    67    61    60    1
    68    55    52    1
    69    83    85    1
    70    54    53    2
    71    44    43    2
    72    53    52    1
    73    60    57    1
    74    52    51    1
    75    47    49   ar
    76    47    46   ar
    77    45    46    1
    78    45    42    1
    79   102   100    1
    80    49    50   ar
    81    56    57    1
    82    57    58    1
    83    46    48   ar
    84    43    42    1
    85    41    42    1
    86    70    68    1
    87    96    97    1
    88    50    48   ar
    89   100    97    1
    90   100   101    1
    91   114   116   ar
    92   114   112   ar
    93    69    68    1
    94   116   115   ar
    95    58    59    2
    96    97    98    1
    97    68    65    1
    98   112   111   ar
    99   112   110   ar
   100   111   109   ar
   101   115   113   ar
   102    65    64    1
   103    65    66    1
   104    98    99    2
   105   110   113   ar
   106   110   108   ar
   107   109   108   ar
   108    66    67    2
   109   108   107    1
   110   103   104    1
   111   107   104    1
   112   104   105    1
   113   105   106    2
