@<TRIPOS>MOLECULE
tmp/2it5A00.pdb
 100 92 0 0 0
SMALL
GASTEIGER

@<TRIPOS>ATOM
      1  N         17.5150   27.5960   -6.6170 N.3    61  PHE61      -0.1241
      2  CA        16.1850   27.0140   -6.7930 C.3    61  PHE61       0.1605
      3  C         15.8780   26.2410   -5.5090 C.2    61  PHE61       0.2264
      4  O         16.6280   25.3460   -5.1210 O.2    61  PHE61      -0.2867
      5  CB        16.1730   26.0980   -8.0140 C.3    61  PHE61       0.0534
      6  CG        16.4370   26.8210   -9.3030 C.ar   61  PHE61      -0.0203
      7  CD1       17.4780   26.4290  -10.1380 C.ar   61  PHE61      -0.0042
      8  CD2       15.6590   27.9130   -9.6700 C.ar   61  PHE61      -0.0042
      9  CE1       17.7450   27.1200  -11.3250 C.ar   61  PHE61      -0.0003
     10  CE2       15.9140   28.6110  -10.8540 C.ar   61  PHE61      -0.0003
     11  CZ        16.9600   28.2140  -11.6800 C.ar   61  PHE61      -0.0000
     12  N          3.3600   29.8250  -15.4000 N.3    95  GLU95      -0.1245
     13  CA         3.3830   28.6840  -14.5000 C.3    95  GLU95       0.1567
     14  C          2.0440   28.5750  -13.7740 C.2    95  GLU95       0.2260
     15  O          1.3200   29.5610  -13.6500 O.2    95  GLU95      -0.2867
     16  CB         4.5060   28.8440  -13.4710 C.3    95  GLU95       0.0388
     17  CG         5.8980   29.0710  -14.0500 C.3    95  GLU95       0.1160
     18  CD         6.3630   27.9530  -14.9660 C.2    95  GLU95       0.3649
     19  OE1        5.8440   26.8200  -14.8580 O.co2  95  GLU95      -0.2457
     20  OE2        7.2670   28.2010  -15.7920 O.co2  95  GLU95      -0.2457
     21  N          3.1330   24.8860  -15.4520 N.3    97  ASN97      -0.1240
     22  CA         2.8870   24.3070  -16.7700 C.3    97  ASN97       0.1653
     23  C          2.9900   22.7970  -16.8980 C.2    97  ASN97       0.2266
     24  O          2.7210   22.2470  -17.9650 O.2    97  ASN97      -0.2867
     25  CB         3.7890   24.9620  -17.8250 C.3    97  ASN97       0.1155
     26  CG         5.2640   24.8000  -17.5210 C.2    97  ASN97       0.2627
     27  OD1        5.6610   23.9610  -16.7170 O.2    97  ASN97      -0.2716
     28  ND2        6.0890   25.6010  -18.1800 N.am   97  ASN97      -0.0877
     29  N          5.1940   20.8370  -17.5910 N.3    99  VAL99      -0.1245
     30  CA         5.9760   20.3290  -18.7170 C.3    99  VAL99       0.1561
     31  C          6.8570   19.1450  -18.3260 C.2    99  VAL99       0.2260
     32  O          7.8040   19.2850  -17.5480 O.2    99  VAL99      -0.2867
     33  CB         6.8650   21.4340  -19.3360 C.3    99  VAL99       0.0252
     34  CG1        6.0050   22.6230  -19.7070 C.3    99  VAL99       0.0019
     35  CG2        7.9690   21.8560  -18.3670 C.3    99  VAL99       0.0019
     36  N          5.5780   17.9050  -13.8700 N.3   102  GLU102     -0.1245
     37  CA         6.1980   18.5800  -12.7350 C.3   102  GLU102      0.1567
     38  C          5.1420   18.7030  -11.6280 C.2   102  GLU102      0.2260
     39  O          4.1840   19.4700  -11.7510 O.2   102  GLU102     -0.2867
     40  CB         6.6890   19.9620  -13.1740 C.3   102  GLU102      0.0388
     41  CG         7.5360   19.9350  -14.4420 C.3   102  GLU102      0.1160
     42  CD         8.0860   21.3040  -14.8190 C.2   102  GLU102      0.3649
     43  OE1        7.2850   22.2280  -15.0900 O.co2 102  GLU102     -0.2457
     44  OE2        9.3280   21.4590  -14.8430 O.co2 102  GLU102     -0.2457
     45  N          8.6870   25.1350   -6.3590 N.3   106  GLU106     -0.1245
     46  CA         9.9640   25.6870   -5.9220 C.3   106  GLU106      0.1567
     47  C          9.9820   27.2050   -6.0820 C.2   106  GLU106      0.2260
     48  O          9.2470   27.7610   -6.9020 O.2   106  GLU106     -0.2867
     49  CB        11.1070   25.1120   -6.7710 C.3   106  GLU106      0.0388
     50  CG        10.9440   25.4200   -8.2610 C.3   106  GLU106      0.1160
     51  CD        12.2440   25.3690   -9.0660 C.2   106  GLU106      0.3649
     52  OE1       12.1830   25.5780  -10.3000 O.co2 106  GLU106     -0.2457
     53  OE2       13.3230   25.1300   -8.4830 O.co2 106  GLU106     -0.2457
     54  N         11.5330   30.2740   -7.5800 N.3   108  SER108     -0.1217
     55  CA        12.3510   30.4950   -8.7630 C.3   108  SER108      0.1889
     56  C         12.3180   31.9640   -9.1360 C.2   108  SER108      0.2288
     57  O         11.2700   32.4980   -9.5030 O.2   108  SER108     -0.2866
     58  CB        11.8240   29.6620   -9.9300 C.3   108  SER108      0.2089
     59  OG        12.6270   29.8400  -11.0830 O.3   108  SER108     -0.2183
     60  N          7.4710   28.0560   -9.3210 N.3   113  ASN113     -0.1225
     61  CA         7.5040   27.2680  -10.5380 C.3   113  ASN113      0.1785
     62  C          7.3500   25.8220  -10.1490 C.2   113  ASN113      0.2597
     63  O          7.7780   25.4250   -9.0670 O.2   113  ASN113     -0.2718
     64  CB         8.8310   27.4300  -11.2850 C.3   113  ASN113      0.1169
     65  CG         8.9330   26.4930  -12.4800 C.2   113  ASN113      0.2627
     66  OD1        8.0580   26.4850  -13.3480 O.2   113  ASN113     -0.2716
     67  ND2        9.9930   25.6920  -12.5260 N.am  113  ASN113     -0.0877
     68  N          6.7190   25.0410  -11.0160 N.am  114  ASP114     -0.1960
     69  CA         6.5740   23.6180  -10.7480 C.3   114  ASP114      0.1840
     70  C          7.6850   22.9250  -11.5200 C.2   114  ASP114      0.2622
     71  O          8.0120   23.3200  -12.6350 O.2   114  ASP114     -0.2715
     72  CB         5.1900   23.1050  -11.1780 C.3   114  ASP114      0.1450
     73  CG         4.8690   23.3910  -12.6370 C.2   114  ASP114      0.3671
     74  OD1        5.3420   24.4010  -13.1850 O.co2 114  ASP114     -0.2456
     75  OD2        4.1090   22.6080  -13.2330 O.co2 114  ASP114     -0.2456
     76  N          8.2860   21.9130  -10.9150 N.am  115  ASP115     -0.1957
     77  CA         9.3770   21.1910  -11.5580 C.3   115  ASP115      0.1840
     78  C          9.2810   19.7220  -11.1710 C.2   115  ASP115      0.2621
     79  O          8.4270   19.3510  -10.3630 O.2   115  ASP115     -0.2715
     80  CB        10.7240   21.7540  -11.0950 C.3   115  ASP115      0.1450
     81  CG        11.7950   21.6560  -12.1650 C.2   115  ASP115      0.3671
     82  OD1       11.8020   20.6470  -12.9030 O.co2 115  ASP115     -0.2456
     83  OD2       12.6320   22.5860  -12.2620 O.co2 115  ASP115     -0.2456
     84  N         10.1550   18.8960  -11.7440 N.am  116  LYS116     -0.1977
     85  CA        10.1700   17.4650  -11.4580 C.3   116  LYS116      0.1596
     86  C         10.5200   17.2220   -9.9960 C.2   116  LYS116      0.2287
     87  O         11.5120   17.7440   -9.4880 O.2   116  LYS116     -0.2864
     88  CB        11.1820   16.7430  -12.3550 C.3   116  LYS116      0.0298
     89  CG        10.8610   16.7830  -13.8520 C.3   116  LYS116      0.0038
     90  CD        10.9960   18.1940  -14.4180 C.3   116  LYS116      0.0206
     91  CE        10.6860   18.2530  -15.9150 C.3   116  LYS116      0.1093
     92  NZ        10.8200   19.6460  -16.4740 N.3   116  LYS116     -0.1314
     93  N         14.1080   15.9760   -9.0320 N.3   119  LEU119     -0.1245
     94  CA        15.2870   16.8130   -9.2050 C.3   119  LEU119      0.1561
     95  C         15.8000   17.2160   -7.8340 C.2   119  LEU119      0.2260
     96  O         15.0350   17.3040   -6.8720 O.2   119  LEU119     -0.2867
     97  CB        14.9520   18.0740   -9.9950 C.3   119  LEU119      0.0270
     98  CG        14.9100   17.8970  -11.5080 C.3   119  LEU119      0.0019
     99  CD1       14.4940   19.2060  -12.1540 C.3   119  LEU119      0.0001
    100  CD2       16.2820   17.4560  -12.0050 C.3   119  LEU119      0.0001
@<TRIPOS>BOND
     1    34    33    1
     2    33    30    1
     3    33    35    1
     4    30    31    1
     5    30    29    1
     6    31    32    2
     7    28    26   am
     8    24    23    2
     9    25    26    1
    10    25    22    1
    11    26    27    2
    12    23    22    1
    13    22    21    1
    14    92    91    1
    15    91    90    1
    16    20    18   ar
    17    12    13    1
    18    43    42   ar
    19    18    19   ar
    20    18    17    1
    21    44    42   ar
    22    42    41    1
    23    13    14    1
    24    13    16    1
    25    41    40    1
    26    90    89    1
    27    17    16    1
    28    36    37    1
    29    89    88    1
    30    14    15    2
    31    66    65    2
    32    75    73   ar
    33    74    73   ar
    34    40    37    1
    35    82    81   ar
    36    37    38    1
    37    73    72    1
    38    71    70    2
    39    67    65   am
    40    65    64    1
    41    88    85    1
    42    83    81   ar
    43    81    80    1
    44    99    98    1
    45   100    98    1
    46    39    38    2
    47    84    85    1
    48    84    78   am
    49    11     9   ar
    50    11    10   ar
    51    77    78    1
    52    77    80    1
    53    77    76    1
    54    70    76   am
    55    70    69    1
    56    98    97    1
    57    85    86    1
    58     9     7   ar
    59    64    61    1
    60    72    69    1
    61    78    79    2
    62    59    58    1
    63    68    69    1
    64    68    62   am
    65    10     8   ar
    66    61    62    1
    67    61    60    1
    68    52    51   ar
    69    62    63    2
    70     7     6   ar
    71    86    87    2
    72    97    94    1
    73    58    55    1
    74     8     6   ar
    75    57    56    2
    76     6     5    1
    77    94    93    1
    78    94    95    1
    79    56    55    1
    80    51    53   ar
    81    51    50    1
    82    55    54    1
    83    50    49    1
    84     5     2    1
    85    95    96    2
    86    48    47    2
    87     2     1    1
    88     2     3    1
    89    49    46    1
    90    45    46    1
    91    47    46    1
    92     3     4    2
