@<TRIPOS>MOLECULE
tmp/2it6A00.pdb
 109 100 0 0 0
SMALL
GASTEIGER

@<TRIPOS>ATOM
      1  N          0.4490   45.2940   -6.7600 N.3    61  PHE61      -0.1241
      2  CA         1.0370   43.9720   -6.9540 C.3    61  PHE61       0.1605
      3  C          1.7320   43.7190   -5.6170 C.2    61  PHE61       0.2264
      4  O          2.5180   44.5470   -5.1640 O.2    61  PHE61      -0.2867
      5  CB         2.0360   44.0210   -8.1090 C.3    61  PHE61       0.0534
      6  CG         1.4020   44.3630   -9.4290 C.ar   61  PHE61      -0.0203
      7  CD1        2.0710   45.1490  -10.3590 C.ar   61  PHE61      -0.0042
      8  CD2        0.1240   43.9050   -9.7350 C.ar   61  PHE61      -0.0042
      9  CE1        1.4760   45.4790  -11.5750 C.ar   61  PHE61      -0.0003
     10  CE2       -0.4810   44.2290  -10.9500 C.ar   61  PHE61      -0.0003
     11  CZ         0.1970   45.0180  -11.8690 C.ar   61  PHE61      -0.0000
     12  N         -4.0520   33.0180  -11.3610 N.3    92  ASN92      -0.1240
     13  CA        -4.8240   33.7330  -12.3740 C.3    92  ASN92       0.1653
     14  C         -4.8310   32.8950  -13.6520 C.2    92  ASN92       0.2266
     15  O         -3.9790   32.0270  -13.8360 O.2    92  ASN92      -0.2867
     16  CB        -4.2050   35.0990  -12.6820 C.3    92  ASN92       0.1155
     17  CG        -4.4290   36.1050  -11.5740 C.2    92  ASN92       0.2627
     18  OD1       -5.3630   35.9750  -10.7870 O.2    92  ASN92      -0.2716
     19  ND2       -3.5850   37.1280  -11.5220 N.am   92  ASN92      -0.0877
     20  N         -1.7520   31.3220  -15.4300 N.3    95  GLU95      -0.1245
     21  CA        -0.6370   31.3210  -14.4900 C.3    95  GLU95       0.1567
     22  C         -0.5900   29.9870  -13.7450 C.2    95  GLU95       0.2260
     23  O         -1.6050   29.3100  -13.6160 O.2    95  GLU95      -0.2867
     24  CB        -0.7960   32.4650  -13.4880 C.3    95  GLU95       0.0388
     25  CG        -1.0150   33.8380  -14.1160 C.3    95  GLU95       0.1160
     26  CD         0.1180   34.2660  -15.0320 C.2    95  GLU95       0.3649
     27  OE1        1.2310   33.7170  -14.9110 O.co2  95  GLU95      -0.2457
     28  OE2       -0.0960   35.1730  -15.8640 O.co2  95  GLU95      -0.2457
     29  N          3.0480   30.9080  -15.4710 N.3    97  ASN97      -0.1240
     30  CA         3.6210   30.6530  -16.7950 C.3    97  ASN97       0.1653
     31  C          5.1370   30.7820  -16.9160 C.2    97  ASN97       0.2266
     32  O          5.7010   30.5600  -17.9910 O.2    97  ASN97      -0.2867
     33  CB         2.9480   31.5460  -17.8440 C.3    97  ASN97       0.1155
     34  CG         2.9750   33.0130  -17.4670 C.2    97  ASN97       0.2627
     35  OD1        3.7190   33.4230  -16.5780 O.2    97  ASN97      -0.2716
     36  ND2        2.1700   33.8160  -18.1560 N.am   97  ASN97      -0.0877
     37  N          7.0920   33.0220  -17.5140 N.3    99  VAL99      -0.1245
     38  CA         7.6000   33.8080  -18.6430 C.3    99  VAL99       0.1561
     39  C          8.8180   34.6540  -18.2750 C.2    99  VAL99       0.2260
     40  O          8.7380   35.5480  -17.4340 O.2    99  VAL99      -0.2867
     41  CB         6.5050   34.7310  -19.2380 C.3    99  VAL99       0.0252
     42  CG1        5.3060   33.9000  -19.6500 C.3    99  VAL99       0.0019
     43  CG2        6.0880   35.7900  -18.2320 C.3    99  VAL99       0.0019
     44  N         10.0450   33.3120  -13.8700 N.3   102  GLU102     -0.1245
     45  CA         9.3390   33.9260  -12.7530 C.3   102  GLU102      0.1567
     46  C          9.2010   32.8670  -11.6670 C.2   102  GLU102      0.2260
     47  O          8.4720   31.8860  -11.8410 O.2   102  GLU102     -0.2867
     48  CB         7.9640   34.3920  -13.2170 C.3   102  GLU102      0.0388
     49  CG         8.0140   35.1810  -14.5230 C.3   102  GLU102      0.1160
     50  CD         6.6530   35.6760  -14.9600 C.2   102  GLU102      0.3649
     51  OE1        5.7410   34.8400  -15.1310 O.co2 102  GLU102     -0.2457
     52  OE2        6.4950   36.9050  -15.1330 O.co2 102  GLU102     -0.2457
     53  N          2.8760   36.4990   -6.3440 N.3   106  GLU106     -0.1245
     54  CA         2.2980   37.7610   -5.9160 C.3   106  GLU106      0.1567
     55  C          0.7810   37.7150   -6.0490 C.2   106  GLU106      0.2260
     56  O          0.2270   36.8740   -6.7730 O.2   106  GLU106     -0.2867
     57  CB         2.8050   38.9050   -6.8000 C.3   106  GLU106      0.0388
     58  CG         2.4770   38.6840   -8.2810 C.3   106  GLU106      0.1160
     59  CD         2.4640   39.9590   -9.1100 C.2   106  GLU106      0.3649
     60  OE1        2.3000   39.8510  -10.3450 O.co2 106  GLU106     -0.2457
     61  OE2        2.6040   41.0620   -8.5410 O.co2 106  GLU106     -0.2457
     62  N         -2.2670   39.3710   -7.5780 N.3   108  SER108     -0.1217
     63  CA        -2.4580   40.2300   -8.7360 C.3   108  SER108      0.1889
     64  C         -3.9180   40.1880   -9.1560 C.2   108  SER108      0.2288
     65  O         -4.4000   39.1740   -9.6560 O.2   108  SER108     -0.2866
     66  CB        -1.5700   39.7650   -9.8890 C.3   108  SER108      0.2089
     67  OG        -1.6900   40.6300  -11.0070 O.3   108  SER108     -0.2183
     68  N         -0.1470   35.4360   -9.3940 N.3   113  ASN113     -0.1225
     69  CA         0.6540   35.4320  -10.6000 C.3   113  ASN113      0.1785
     70  C          2.0850   35.1710  -10.1940 C.2   113  ASN113      0.2597
     71  O          2.4910   35.5130   -9.0840 O.2   113  ASN113     -0.2718
     72  CB         0.5810   36.7810  -11.3260 C.3   113  ASN113      0.1169
     73  CG         1.5450   36.8550  -12.5010 C.2   113  ASN113      0.2627
     74  OD1        1.5410   35.9830  -13.3710 O.2   113  ASN113     -0.2716
     75  ND2        2.3770   37.8950  -12.5320 N.am  113  ASN113     -0.0877
     76  N          2.8410   34.5220  -11.0690 N.am  114  ASP114     -0.1960
     77  CA         4.2430   34.3020  -10.7810 C.3   114  ASP114      0.1840
     78  C          4.9570   35.4200  -11.5330 C.2   114  ASP114      0.2622
     79  O          4.6210   35.7220  -12.6770 O.2   114  ASP114     -0.2715
     80  CB         4.6990   32.9050  -11.2400 C.3   114  ASP114      0.1450
     81  CG         4.4510   32.6410  -12.7170 C.2   114  ASP114      0.3671
     82  OD1        3.4590   33.1480  -13.2730 O.co2 114  ASP114     -0.2456
     83  OD2        5.2510   31.8910  -13.3150 O.co2 114  ASP114     -0.2456
     84  N          5.9110   36.0680  -10.8790 N.am  115  ASP115     -0.1957
     85  CA         6.6280   37.1650  -11.5210 C.3   115  ASP115      0.1840
     86  C          8.1070   37.0650  -11.1850 C.2   115  ASP115      0.2621
     87  O          8.5080   36.2140  -10.3940 O.2   115  ASP115     -0.2715
     88  CB         6.0750   38.5080  -11.0290 C.3   115  ASP115      0.1450
     89  CG         6.1370   39.5940  -12.0880 C.2   115  ASP115      0.3671
     90  OD1        7.0780   39.5760  -12.9100 O.co2 115  ASP115     -0.2456
     91  OD2        5.2490   40.4740  -12.0850 O.co2 115  ASP115     -0.2456
     92  N          8.9140   37.9330  -11.7910 N.am  116  LYS116     -0.1977
     93  CA        10.3510   37.9470  -11.5480 C.3   116  LYS116      0.1596
     94  C         10.6330   38.3400  -10.1020 C.2   116  LYS116      0.2287
     95  O         10.1860   39.3840   -9.6360 O.2   116  LYS116     -0.2864
     96  CB        11.0470   38.9350  -12.4920 C.3   116  LYS116      0.0298
     97  CG        11.0180   38.5300  -13.9680 C.3   116  LYS116      0.0038
     98  CD         9.6100   38.5260  -14.5340 C.3   116  LYS116      0.0206
     99  CE         9.6030   38.1330  -16.0110 C.3   116  LYS116      0.1093
    100  NZ         8.2300   38.1520  -16.6080 N.3   116  LYS116     -0.1314
    101  N          7.9640   45.0100   -5.3680 N.3   121  LYS121     -0.1245
    102  CA         6.5210   45.0320   -5.2190 C.3   121  LYS121      0.1561
    103  C          6.2130   45.2900   -3.7580 C.2   121  LYS121      0.2260
    104  O          7.1130   45.3300   -2.9200 O.2   121  LYS121     -0.2867
    105  CB         5.9070   43.6820   -5.6130 C.3   121  LYS121      0.0271
    106  CG         6.0340   43.2820   -7.0800 C.3   121  LYS121      0.0035
    107  CD         5.3880   41.9100   -7.3020 C.3   121  LYS121      0.0206
    108  CE         5.6250   41.3680   -8.7070 C.3   121  LYS121      0.1093
    109  NZ         4.8270   42.0700   -9.7520 N.3   121  LYS121     -0.1314
@<TRIPOS>BOND
     1    42    41    1
     2    41    38    1
     3    41    43    1
     4    38    39    1
     5    38    37    1
     6    39    40    2
     7    36    34   am
     8    32    31    2
     9    33    34    1
    10    33    30    1
    11    34    35    2
    12    31    30    1
    13    30    29    1
    14   100    99    1
    15    99    98    1
    16    28    26   ar
    17    20    21    1
    18    52    50   ar
    19    51    50   ar
    20    26    27   ar
    21    26    25    1
    22    50    49    1
    23    98    97    1
    24    49    48    1
    25    21    22    1
    26    21    24    1
    27    25    24    1
    28    97    96    1
    29    44    45    1
    30    15    14    2
    31    22    23    2
    32    14    13    1
    33    74    73    2
    34    83    81   ar
    35    82    81   ar
    36    48    45    1
    37    90    89   ar
    38    45    46    1
    39    81    80    1
    40    16    13    1
    41    16    17    1
    42    79    78    2
    43    75    73   am
    44    73    72    1
    45    96    93    1
    46    13    12    1
    47    89    91   ar
    48    89    88    1
    49    11     9   ar
    50    11    10   ar
    51    47    46    2
    52    92    93    1
    53    92    86   am
    54     9     7   ar
    55    17    19   am
    56    17    18    2
    57    93    94    1
    58    78    84   am
    59    78    77    1
    60    85    86    1
    61    85    88    1
    62    85    84    1
    63    72    69    1
    64    80    77    1
    65    86    87    2
    66    76    77    1
    67    76    70   am
    68    67    66    1
    69    10     8   ar
    70    69    70    1
    71    69    68    1
    72     7     6   ar
    73    60    59   ar
    74    70    71    2
    75    94    95    2
    76    66    63    1
    77   109   108    1
    78     8     6   ar
    79    65    64    2
    80     6     5    1
    81    64    63    1
    82    59    61   ar
    83    59    58    1
    84    63    62    1
    85   108   107    1
    86    58    57    1
    87     5     2    1
    88   107   106    1
    89   106   105    1
    90     2     1    1
    91     2     3    1
    92    57    54    1
    93    56    55    2
    94    53    54    1
    95    55    54    1
    96     3     4    2
    97   105   102    1
    98   101   102    1
    99   102   103    1
   100   103   104    2
