@<TRIPOS>MOLECULE
tmp/2iteB00.pdb
 131 129 0 0 0
SMALL
GASTEIGER

@<TRIPOS>ATOM
      1  N         14.1400   19.8570   28.5410 N.3    12  LYS12      -0.1231
      2  CA        15.1950   18.8620   28.7650 C.3    12  LYS12       0.1693
      3  C         16.1840   18.8520   27.5980 C.2    12  LYS12       0.2592
      4  O         15.8420   19.1770   26.4800 O.2    12  LYS12      -0.2718
      5  CB        14.5690   17.4770   28.9730 C.3    12  LYS12       0.0285
      6  CG        13.6120   17.4990   30.1680 C.3    12  LYS12       0.0035
      7  CD        13.2940   16.0930   30.6740 C.3    12  LYS12       0.0206
      8  CE        12.5120   16.2180   31.9880 C.3    12  LYS12       0.1093
      9  NZ        13.3630   16.2380   33.2040 N.3    12  LYS12      -0.1314
     10  N         17.4370   18.5490   27.8900 N.am   13  ASP13      -0.1974
     11  CA        18.4330   18.3830   26.8380 C.3    13  ASP13       0.1709
     12  C         17.9800   17.2560   25.8890 C.2    13  ASP13       0.2293
     13  O         17.8970   16.0780   26.2590 O.2    13  ASP13      -0.2864
     14  CB        19.7610   18.0130   27.4930 C.3    13  ASP13       0.1436
     15  CG        20.9100   17.9920   26.5230 C.2    13  ASP13       0.3671
     16  OD1       20.8570   18.6640   25.4790 O.co2  13  ASP13      -0.2456
     17  OD2       21.9060   17.3110   26.8640 O.co2  13  ASP13      -0.2456
     18  N         11.6450   20.6880   31.4320 N.3    19  SER19      -0.1202
     19  CA        12.6680   20.3880   32.4390 C.3    19  SER19       0.2020
     20  C         12.1440   20.7450   33.8310 C.2    19  SER19       0.2618
     21  O         11.4140   21.7160   33.9840 O.2    19  SER19      -0.2717
     22  CB        13.9010   21.2460   32.1840 C.3    19  SER19       0.2103
     23  OG        14.8880   21.0660   33.2010 O.3    19  SER19      -0.2182
     24  N         12.5560   19.9870   34.8280 N.am   20  HIS20      -0.1975
     25  CA        12.2540   20.3790   36.2010 C.3    20  HIS20       0.1656
     26  C         12.8470   21.7650   36.5220 C.2    20  HIS20       0.2291
     27  O         12.3410   22.4800   37.3850 O.2    20  HIS20      -0.2864
     28  CB        12.7490   19.3460   37.2000 C.3    20  HIS20       0.0771
     29  CG        12.1350   19.4910   38.5590 C.ar   20  HIS20       0.0820
     30  ND1       12.7790   19.1010   39.7160 N.ar   20  HIS20      -0.2267
     31  CD2       10.9320   19.9870   38.9450 C.ar   20  HIS20       0.1154
     32  CE1       11.9980   19.3430   40.7530 C.ar   20  HIS20       0.1986
     33  NE2       10.8690   19.8740   40.3110 N.ar   20  HIS20      -0.2212
     34  N         12.4330   24.2760   34.9510 N.3    21  ASP21      -0.1239
     35  CA        11.4470   25.2670   34.6150 C.3    21  ASP21       0.1674
     36  C         10.7170   25.7620   35.8710 C.2    21  ASP21       0.2266
     37  O         10.3320   26.9020   35.9310 O.2    21  ASP21      -0.2867
     38  CB        10.4710   24.7540   33.5650 C.3    21  ASP21       0.1410
     39  CG         9.6670   25.8680   32.9510 C.2    21  ASP21       0.3668
     40  OD1        8.4270   25.8980   33.1540 O.co2  21  ASP21      -0.2456
     41  OD2       10.2540   26.7350   32.2790 O.co2  21  ASP21      -0.2456
     42  N         12.0940   26.1210   38.7890 N.3    23  TYR23      -0.1241
     43  CA        13.0530   26.7910   39.6770 C.3    23  TYR23       0.1605
     44  C         13.5230   28.1320   39.1230 C.2    23  TYR23       0.2264
     45  O         14.5140   28.7190   39.5830 O.2    23  TYR23      -0.2867
     46  CB        14.1990   25.8460   39.9560 C.3    23  TYR23       0.0534
     47  CG        13.7680   24.8020   40.9540 C.ar   23  TYR23      -0.0201
     48  CD1       13.9260   25.0310   42.3180 C.ar   23  TYR23      -0.0009
     49  CD2       13.1520   23.6180   40.5410 C.ar   23  TYR23      -0.0009
     50  CE1       13.5300   24.0980   43.2400 C.ar   23  TYR23       0.0417
     51  CE2       12.7300   22.6690   41.4780 C.ar   23  TYR23       0.0417
     52  CZ        12.9340   22.9280   42.8220 C.ar   23  TYR23       0.1957
     53  OH        12.5360   22.0320   43.7970 O.3    23  TYR23      -0.2866
     54  N         20.9540   26.5770   46.0690 N.3    47  PHE47      -0.1227
     55  CA        21.0840   25.2280   45.4400 C.3    47  PHE47       0.1736
     56  C         21.9370   25.2900   44.1730 C.2    47  PHE47       0.2595
     57  O         22.4620   24.2730   43.7460 O.2    47  PHE47      -0.2718
     58  CB        19.7390   24.6470   44.9270 C.3    47  PHE47       0.0547
     59  CG        18.7020   24.3280   45.9880 C.ar   47  PHE47      -0.0202
     60  CD1       17.5140   23.7170   45.6150 C.ar   47  PHE47      -0.0042
     61  CD2       18.9180   24.6070   47.3290 C.ar   47  PHE47      -0.0042
     62  CE1       16.5290   23.4230   46.5770 C.ar   47  PHE47      -0.0003
     63  CE2       17.9620   24.3120   48.2780 C.ar   47  PHE47      -0.0003
     64  CZ        16.7520   23.7130   47.8880 C.ar   47  PHE47      -0.0000
     65  N         22.0100   26.4590   43.5270 N.am   48  TRP48      -0.1976
     66  CA        22.6680   26.5500   42.2380 C.3    48  TRP48       0.1640
     67  C         24.1530   26.8210   42.4320 C.2    48  TRP48       0.2290
     68  O         24.5530   27.9850   42.4870 O.2    48  TRP48      -0.2864
     69  CB        22.0770   27.7120   41.4360 C.3    48  TRP48       0.0576
     70  CG        20.5910   27.6470   41.1220 C.ar   48  TRP48       0.0006
     71  CD1       19.5320   27.6820   42.0140 C.ar   48  TRP48       0.0946
     72  CD2       20.0020   27.5780   39.8120 C.ar   48  TRP48       0.0152
     73  NE1       18.3450   27.6410   41.3330 N.ar   48  TRP48      -0.2442
     74  CE2       18.5980   27.5920   39.9820 C.ar   48  TRP48       0.0810
     75  CE3       20.5310   27.5570   38.5070 C.ar   48  TRP48       0.0012
     76  CZ2       17.7080   27.5520   38.8980 C.ar   48  TRP48       0.0191
     77  CZ3       19.6540   27.5010   37.4310 C.ar   48  TRP48       0.0001
     78  CH2       18.2610   27.5040   37.6270 C.ar   48  TRP48       0.0015
     79  N         24.2050   23.6340   34.4130 N.3    92  VAL92      -0.1245
     80  CA        24.1260   23.9150   35.8430 C.3    92  VAL92       0.1561
     81  C         24.7160   22.7860   36.6800 C.2    92  VAL92       0.2260
     82  O         24.8320   21.6250   36.2270 O.2    92  VAL92      -0.2867
     83  CB        22.6680   24.1390   36.2920 C.3    92  VAL92       0.0252
     84  CG1       22.0640   25.3270   35.5450 C.3    92  VAL92       0.0019
     85  CG2       21.8580   22.8740   36.1010 C.3    92  VAL92       0.0019
     86  N         23.8530   21.6200   40.5630 N.3    94  ILE94      -0.1245
     87  CA        22.8830   21.8150   41.6090 C.3    94  ILE94       0.1561
     88  C         23.2860   20.8740   42.7430 C.2    94  ILE94       0.2260
     89  O         23.4690   19.6590   42.5420 O.2    94  ILE94      -0.2867
     90  CB        21.4360   21.4660   41.1090 C.3    94  ILE94       0.0252
     91  CG1       21.0550   22.2470   39.8260 C.3    94  ILE94       0.0019
     92  CG2       20.3960   21.6160   42.2450 C.3    94  ILE94       0.0019
     93  CD1       21.0930   23.7830   39.9630 C.3    94  ILE94       0.0001
     94  N         21.9420   15.5610   47.4470 N.3   101  TYR101     -0.1241
     95  CA        21.6700   15.8020   46.0200 C.3   101  TYR101      0.1605
     96  C         22.8520   16.5330   45.3760 C.2   101  TYR101      0.2264
     97  O         23.3380   17.5490   45.9050 O.2   101  TYR101     -0.2867
     98  CB        20.3990   16.6550   45.8820 C.3   101  TYR101      0.0534
     99  CG        19.8880   16.8690   44.5080 C.ar  101  TYR101     -0.0201
    100  CD1       18.8620   16.0520   43.9990 C.ar  101  TYR101     -0.0009
    101  CD2       20.4240   17.8630   43.6900 C.ar  101  TYR101     -0.0009
    102  CE1       18.3840   16.2260   42.7210 C.ar  101  TYR101      0.0417
    103  CE2       19.9430   18.0570   42.3950 C.ar  101  TYR101      0.0417
    104  CZ        18.9220   17.2340   41.9290 C.ar  101  TYR101      0.1957
    105  OH        18.4300   17.4490   40.6500 O.3   101  TYR101     -0.2866
    106  N         23.4130   19.2860   34.9970 N.3   105  TYR105     -0.1227
    107  CA        22.4400   19.1740   33.9210 C.3   105  TYR105      0.1736
    108  C         22.7140   20.1870   32.8440 C.2   105  TYR105      0.2596
    109  O         23.1870   21.2870   33.1310 O.2   105  TYR105     -0.2718
    110  CB        20.9980   19.4300   34.4030 C.3   105  TYR105      0.0548
    111  CG        20.4960   18.5070   35.4630 C.ar  105  TYR105     -0.0200
    112  CD1       20.1600   17.1760   35.1690 C.ar  105  TYR105     -0.0009
    113  CD2       20.3430   18.9740   36.7680 C.ar  105  TYR105     -0.0009
    114  CE1       19.6830   16.3410   36.1810 C.ar  105  TYR105      0.0417
    115  CE2       19.8830   18.1670   37.7570 C.ar  105  TYR105      0.0417
    116  CZ        19.5600   16.8580   37.4660 C.ar  105  TYR105      0.1957
    117  OH        19.1100   16.0530   38.4880 O.3   105  TYR105     -0.2866
    118  N         22.4210   19.7970   31.6040 N.am  106  THR106     -0.1939
    119  CA        22.2900   20.7300   30.4920 C.3   106  THR106      0.2028
    120  C         20.8130   20.8450   30.2090 C.2   106  THR106      0.2642
    121  O         20.1130   19.8320   30.1790 O.2   106  THR106     -0.2714
    122  CB        23.0250   20.2000   29.2370 C.3   106  THR106      0.1808
    123  OG1       24.4390   20.2030   29.5250 O.3   106  THR106     -0.2208
    124  CG2       22.7610   21.1130   28.0660 C.3   106  THR106      0.0379
    125  N         20.3250   22.0840   30.0300 N.am  107  THR107     -0.1950
    126  CA        18.9200   22.3110   29.6480 C.3   107  THR107      0.1897
    127  C         18.8220   23.2950   28.5040 C.2   107  THR107      0.2313
    128  O         19.7960   23.9690   28.1960 O.2   107  THR107     -0.2863
    129  CB        18.0650   22.8070   30.7990 C.3   107  THR107      0.1794
    130  OG1       18.5090   24.1040   31.1760 O.3   107  THR107     -0.2208
    131  CG2       18.1600   21.8800   31.9750 C.3   107  THR107      0.0378
@<TRIPOS>BOND
     1    16    15   ar
     2    12    13    2
     3    12    11    1
     4     4     3    2
     5    15    17   ar
     6    15    14    1
     7    11    14    1
     8    11    10    1
     9     3    10   am
    10     3     2    1
    11   124   122    1
    12   128   127    2
    13   127   126    1
    14     1     2    1
    15     2     5    1
    16     5     6    1
    17   122   123    1
    18   122   119    1
    19   126   125    1
    20   126   129    1
    21   125   120   am
    22     6     7    1
    23   121   120    2
    24   120   119    1
    25   119   118    1
    26     7     8    1
    27   129   130    1
    28   129   131    1
    29    18    19    1
    30   118   108   am
    31     8     9    1
    32    22    19    1
    33    22    23    1
    34    41    39   ar
    35    19    20    1
    36   108   109    2
    37   108   107    1
    38    39    40   ar
    39    39    38    1
    40    38    35    1
    41    20    21    2
    42    20    24   am
    43   107   110    1
    44   107   106    1
    45   110   111    1
    46    79    80    1
    47    35    34    1
    48    35    36    1
    49    24    25    1
    50   112   111   ar
    51   112   114   ar
    52   111   113   ar
    53    84    83    1
    54    80    83    1
    55    80    81    1
    56    36    37    2
    57    85    83    1
    58   114   116   ar
    59    25    26    1
    60    25    28    1
    61    82    81    2
    62    26    27    2
    63   113   115   ar
    64    28    29    1
    65    77    78   ar
    66    77    75   ar
    67   116   115   ar
    68   116   117    1
    69    78    76   ar
    70    75    72   ar
    71    29    31   ar
    72    29    30   ar
    73    42    43    1
    74    76    74   ar
    75    31    33   ar
    76    44    45    2
    77    44    43    1
    78    43    46    1
    79    30    32   ar
    80    72    74   ar
    81    72    70   ar
    82    91    93    1
    83    91    90    1
    84    46    47    1
    85    74    73   ar
    86    33    32   ar
    87    49    47   ar
    88    49    51   ar
    89    86    87    1
    90   105   104    1
    91    47    48   ar
    92    90    87    1
    93    90    92    1
    94    70    69    1
    95    70    71   ar
    96    73    71   ar
    97    69    66    1
    98    51    52   ar
    99    87    88    1
   100   104   103   ar
   101   104   102   ar
   102    66    67    1
   103    66    65    1
   104    48    50   ar
   105   103   101   ar
   106    67    68    2
   107    89    88    2
   108   102   100   ar
   109    52    50   ar
   110    52    53    1
   111    65    56   am
   112   101    99   ar
   113    57    56    2
   114   100    99   ar
   115    56    55    1
   116    99    98    1
   117    58    55    1
   118    58    59    1
   119    96    97    2
   120    96    95    1
   121    55    54    1
   122    60    59   ar
   123    60    62   ar
   124    98    95    1
   125    59    61   ar
   126    95    94    1
   127    62    64   ar
   128    61    63   ar
   129    64    63   ar
