@<TRIPOS>MOLECULE
tmp/2itkA00.pdb
 178 171 0 0 0
SMALL
GASTEIGER

@<TRIPOS>ATOM
      1  N         35.3460   17.3430   21.4960 N.3    41  HIS41      -0.1241
      2  CA        34.6040   17.2140   22.7430 C.3    41  HIS41       0.1621
      3  C         33.1100   17.2210   22.5300 C.2    41  HIS41       0.2264
      4  O         32.6000   17.6160   21.4730 O.2    41  HIS41      -0.2867
      5  CB        35.0710   18.2890   23.7450 C.3    41  HIS41       0.0745
      6  CG        34.4000   19.6220   23.6140 C.ar   41  HIS41       0.0817
      7  ND1       34.3230   20.3580   22.4460 N.ar   41  HIS41      -0.2268
      8  CD2       33.8220   20.3790   24.5700 C.ar   41  HIS41       0.1154
      9  CE1       33.6770   21.4920   22.6910 C.ar   41  HIS41       0.1986
     10  NE2       33.3560   21.5170   23.9690 N.ar   41  HIS41      -0.2212
     11  N         29.9900   18.6780   24.8700 N.3    43  LEU43      -0.1245
     12  CA        29.7010   19.5020   26.0430 C.3    43  LEU43       0.1561
     13  C         28.2340   19.3840   26.4030 C.2    43  LEU43       0.2260
     14  O         27.3670   19.5160   25.5510 O.2    43  LEU43      -0.2867
     15  CB        29.9830   20.9750   25.7170 C.3    43  LEU43       0.0270
     16  CG        29.6680   21.9950   26.8230 C.3    43  LEU43       0.0019
     17  CD1       30.4650   21.7330   28.1020 C.3    43  LEU43       0.0001
     18  CD2       29.9000   23.3860   26.3030 C.3    43  LEU43       0.0001
     19  N         25.8790   21.4720   28.8100 N.3    45  LYS45      -0.1245
     20  CA        25.7840   22.6230   29.7080 C.3    45  LYS45       0.1561
     21  C         24.7030   22.4150   30.7720 C.2    45  LYS45       0.2260
     22  O         23.8590   21.5420   30.6460 O.2    45  LYS45      -0.2867
     23  CB        25.4850   23.8850   28.8950 C.3    45  LYS45       0.0271
     24  CG        26.7030   24.4330   28.1890 C.3    45  LYS45       0.0035
     25  CD        26.3700   25.7450   27.4560 C.3    45  LYS45       0.0206
     26  CE        27.6100   26.3650   26.8750 C.3    45  LYS45       0.1093
     27  NZ        27.3600   27.7830   26.4040 N.3    45  LYS45      -0.1314
     28  N         28.6580   28.9960   32.8270 N.3    50  ARG50      -0.1231
     29  CA        28.8870   30.4360   32.7140 C.3    50  ARG50       0.1694
     30  C         27.9830   31.1120   31.6860 C.2    50  ARG50       0.2591
     31  O         27.6490   32.2870   31.8470 O.2    50  ARG50      -0.2718
     32  CB        30.3620   30.7530   32.4830 C.3    50  ARG50       0.0321
     33  CG        30.8370   30.8120   31.0500 C.3    50  ARG50       0.0489
     34  CD        31.9180   31.8920   30.9180 C.3    50  ARG50       0.2205
     35  NE        32.8250   31.9150   32.0730 N.pl3  50  ARG50      -0.0865
     36  CZ        34.0410   31.3680   32.1000 C.cat  50  ARG50       0.5346
     37  NH1       34.5290   30.7470   31.0280 N.pl3  50  ARG50       0.1354
     38  NH2       34.7780   31.4440   33.2040 N.pl3  50  ARG50       0.1354
     39  N         27.5690   30.3620   30.6640 N.am   51  ARG51      -0.1980
     40  CA        26.6310   30.8380   29.6520 C.3    51  ARG51       0.1597
     41  C         25.5980   29.7280   29.3810 C.2    51  ARG51       0.2287
     42  O         25.8020   28.8990   28.4920 O.2    51  ARG51      -0.2864
     43  CB        27.4020   31.2100   28.3800 C.3    51  ARG51       0.0334
     44  CG        26.8910   32.4370   27.6410 C.3    51  ARG51       0.0492
     45  CD        26.0490   32.0830   26.4180 C.3    51  ARG51       0.2205
     46  NE        26.8190   31.3770   25.3890 N.pl3  51  ARG51      -0.0865
     47  CZ        26.3450   31.0310   24.1950 C.cat  51  ARG51       0.5346
     48  NH1       25.1000   31.3300   23.8470 N.pl3  51  ARG51       0.1354
     49  NH2       27.1220   30.3880   23.3400 N.pl3  51  ARG51       0.1354
     50  N         22.8710   27.6000   24.2980 N.3    54  SER54      -0.1217
     51  CA        23.6580   27.0030   23.2000 C.3    54  SER54       0.1889
     52  C         22.8140   26.9890   21.9400 C.2    54  SER54       0.2288
     53  O         21.6530   27.3670   21.9820 O.2    54  SER54      -0.2866
     54  CB        24.0750   25.5620   23.5450 C.3    54  SER54       0.2089
     55  OG        22.9790   24.6960   23.3910 O.3    54  SER54      -0.2183
     56  N         26.5380   20.9340   23.4220 N.3    94  ASP94      -0.1225
     57  CA        26.1220   22.3390   23.6230 C.3    94  ASP94       0.1805
     58  C         27.2140   23.3320   23.2570 C.2    94  ASP94       0.2598
     59  O         27.3580   24.3820   23.8920 O.2    94  ASP94      -0.2718
     60  CB        25.7050   22.5660   25.0860 C.3    94  ASP94       0.1424
     61  CG        24.2960   22.0460   25.3970 C.2    94  ASP94       0.3668
     62  OD1       23.3400   22.3190   24.6270 O.co2  94  ASP94      -0.2456
     63  OD2       24.1240   21.3570   26.4350 O.co2  94  ASP94      -0.2456
     64  N         28.0090   22.9760   22.2560 N.am   95  CYS95      -0.1956
     65  CA        29.0940   23.8120   21.7480 C.3    95  CYS95       0.1843
     66  C         28.8980   23.9120   20.2400 C.2    95  CYS95       0.2626
     67  O         28.4150   22.9690   19.6160 O.2    95  CYS95      -0.2714
     68  CB        30.4600   23.1950   22.0720 C.3    95  CYS95       0.0997
     69  SG        31.9400   24.1620   21.6260 S.3    95  CYS95      -0.0797
     70  N         29.2180   25.0630   19.6570 N.am   96  SER96      -0.1950
     71  CA        29.1320   25.2090   18.2000 C.3    96  SER96       0.1924
     72  C         30.0870   24.2620   17.4590 C.2    96  SER96       0.2314
     73  O         29.8830   23.9900   16.2700 O.2    96  SER96      -0.2863
     74  CB        29.3930   26.6590   17.7710 C.3    96  SER96       0.2116
     75  OG        30.6420   27.1140   18.2330 O.3    96  SER96      -0.2180
     76  N         37.8260   20.4900   17.8390 N.3   104  LEU104     -0.1231
     77  CA        38.2920   21.8340   18.2170 C.3   104  LEU104      0.1693
     78  C         39.5580   22.2460   17.4920 C.2   104  LEU104      0.2593
     79  O         39.9570   23.4070   17.5730 O.2   104  LEU104     -0.2718
     80  CB        38.5570   21.9040   19.7230 C.3   104  LEU104      0.0284
     81  CG        37.3200   21.7850   20.5950 C.3   104  LEU104      0.0019
     82  CD1       37.7750   21.4800   22.0040 C.3   104  LEU104      0.0001
     83  CD2       36.4760   23.0560   20.5340 C.3   104  LEU104      0.0001
     84  N         40.1830   21.3070   16.7890 N.am  105  GLY105     -0.1942
     85  CA        41.5000   21.5250   16.2060 C.3   105  GLY105      0.2014
     86  C         42.6190   21.3790   17.2160 C.2   105  GLY105      0.2639
     87  O         42.4070   20.9020   18.3480 O.2   105  GLY105     -0.2714
     88  N         43.8230   21.7760   16.8170 N.am  106  ALA106     -0.1963
     89  CA        45.0040   21.6210   17.6630 C.3   106  ALA106      0.1728
     90  C         45.1900   22.8160   18.5950 C.2   106  ALA106      0.2616
     91  O         44.8380   23.9390   18.2410 O.2   106  ALA106     -0.2715
     92  CB        46.2460   21.4000   16.8080 C.3   106  ALA106      0.0334
     93  N         45.7090   22.5590   19.7950 N.am  107  PHE107     -0.1974
     94  CA        45.9910   23.6200   20.7700 C.3   107  PHE107      0.1639
     95  C         47.1580   23.2290   21.6640 C.2   107  PHE107      0.2290
     96  O         47.4800   22.0520   21.8040 O.2   107  PHE107     -0.2864
     97  CB        44.7500   23.9880   21.5980 C.3   107  PHE107      0.0560
     98  CG        44.1020   22.8110   22.2920 C.ar  107  PHE107     -0.0200
     99  CD1       43.1090   22.0730   21.6500 C.ar  107  PHE107     -0.0042
    100  CD2       44.4770   22.4480   23.5850 C.ar  107  PHE107     -0.0042
    101  CE1       42.5080   20.9770   22.2800 C.ar  107  PHE107     -0.0003
    102  CE2       43.8750   21.3530   24.2210 C.ar  107  PHE107     -0.0003
    103  CZ        42.8920   20.6230   23.5640 C.ar  107  PHE107     -0.0000
    104  N         48.0710   26.6000   27.8460 N.3   110  GLY110     -0.1210
    105  CA        47.9060   28.0450   27.9950 C.3   110  GLY110      0.1956
    106  C         46.8680   28.6320   27.0560 C.2   110  GLY110      0.2612
    107  O         46.9040   29.8320   26.7670 O.2   110  GLY110     -0.2717
    108  N         45.9370   27.7960   26.5820 N.am  111  GLN111     -0.1965
    109  CA        44.8570   28.2550   25.7090 C.3   111  GLN111      0.1733
    110  C         43.4620   27.9120   26.2040 C.2   111  GLN111      0.2616
    111  O         42.5520   28.6960   26.0270 O.2   111  GLN111     -0.2715
    112  CB        45.0100   27.6890   24.2910 C.3   111  GLN111      0.0408
    113  CG        46.2960   28.0810   23.5840 C.3   111  GLN111      0.0908
    114  CD        46.2010   27.8570   22.0970 C.2   111  GLN111      0.2608
    115  OE1       46.7770   26.9170   21.5560 O.2   111  GLN111     -0.2717
    116  NE2       45.4750   28.7400   21.4210 N.am  111  GLN111     -0.0878
    117  N         43.3020   26.7280   26.8000 N.am  112  MET112     -0.1963
    118  CA        41.9820   26.2190   27.1930 C.3   112  MET112      0.1736
    119  C         41.7070   26.4250   28.6820 C.2   112  MET112      0.2616
    120  O         42.6460   26.5960   29.4500 O.2   112  MET112     -0.2715
    121  CB        41.8860   24.7180   26.8730 C.3   112  MET112      0.0427
    122  CG        42.0780   24.3350   25.3990 C.3   112  MET112      0.0599
    123  SD        41.0240   25.2910   24.3020 S.3   112  MET112     -0.1393
    124  CE        40.6750   24.1190   22.9930 C.3   112  MET112      0.0692
    125  N         40.4420   26.4150   29.0790 N.am  113  GLN113     -0.1963
    126  CA        40.1040   26.3320   30.5110 C.3   113  GLN113      0.1733
    127  C         40.8750   25.1710   31.1310 C.2   113  GLN113      0.2616
    128  O         40.9830   24.0860   30.5460 O.2   113  GLN113     -0.2715
    129  CB        38.6080   26.1540   30.7190 C.3   113  GLN113      0.0408
    130  CG        37.7690   27.3670   30.2760 C.3   113  GLN113      0.0908
    131  CD        36.2650   27.1560   30.4030 C.2   113  GLN113      0.2608
    132  OE1       35.5430   28.0480   30.8370 O.2   113  GLN113     -0.2717
    133  NE2       35.7860   25.9870   30.0030 N.am  113  GLN113     -0.0878
    134  N         41.3990   25.3860   32.3290 N.am  114  LYS114     -0.1977
    135  CA        42.4130   24.5150   32.8820 C.3   114  LYS114      0.1596
    136  C         42.0400   23.0090   33.0280 C.2   114  LYS114      0.2287
    137  O         42.8520   22.1570   32.6790 O.2   114  LYS114     -0.2864
    138  CB        42.9280   25.0940   34.2120 C.3   114  LYS114      0.0298
    139  CG        44.1290   24.3840   34.7720 C.3   114  LYS114      0.0038
    140  CD        45.3220   24.3600   33.8550 C.3   114  LYS114      0.0206
    141  CE        46.5390   23.8740   34.6320 C.3   114  LYS114      0.1093
    142  NZ        47.6170   23.2150   33.8410 N.3   114  LYS114     -0.1314
    143  N         40.0550   21.3630   31.2650 N.3   116  PHE116     -0.1227
    144  CA        40.0000   20.8550   29.8930 C.3   116  PHE116      0.1736
    145  C         41.4020   20.6460   29.3210 C.2   116  PHE116      0.2595
    146  O         41.7110   19.6080   28.7380 O.2   116  PHE116     -0.2718
    147  CB        39.1780   21.7970   29.0300 C.3   116  PHE116      0.0547
    148  CG        38.8340   21.2360   27.6730 C.ar  116  PHE116     -0.0202
    149  CD1       39.7870   21.2260   26.6550 C.ar  116  PHE116     -0.0042
    150  CD2       37.5620   20.7400   27.4170 C.ar  116  PHE116     -0.0042
    151  CE1       39.4710   20.7010   25.4130 C.ar  116  PHE116     -0.0003
    152  CE2       37.2300   20.2250   26.1630 C.ar  116  PHE116     -0.0003
    153  CZ        38.1930   20.2100   25.1680 C.ar  116  PHE116     -0.0000
    154  N         42.2850   21.6310   29.4800 N.am  117  GLU117     -0.1979
    155  CA        43.6740   21.4480   29.0840 C.3   117  GLU117      0.1602
    156  C         44.3620   20.2210   29.7070 C.2   117  GLU117      0.2287
    157  O         45.0110   19.4230   29.0150 O.2   117  GLU117     -0.2864
    158  CB        44.4800   22.7090   29.4230 C.3   117  GLU117      0.0415
    159  CG        45.9670   22.5290   29.3050 C.3   117  GLU117      0.1163
    160  CD        46.7060   23.7660   29.7790 C.2   117  GLU117      0.3649
    161  OE1       46.3210   24.8660   29.3230 O.co2 117  GLU117     -0.2457
    162  OE2       47.6330   23.6210   30.6070 O.co2 117  GLU117     -0.2457
    163  N         32.3540   25.9900   31.7340 N.3   136  SER136     -0.1217
    164  CA        31.4740   25.8280   30.5790 C.3   136  SER136      0.1889
    165  C         30.3400   24.8290   30.8090 C.2   136  SER136      0.2288
    166  O         29.2350   24.9980   30.3120 O.2   136  SER136     -0.2866
    167  CB        32.2810   25.3710   29.3590 C.3   136  SER136      0.2089
    168  OG        33.2180   26.3630   28.9930 O.3   136  SER136     -0.2183
    169  N         32.2570   18.0400   30.0900 N.3   139  HIS139     -0.1241
    170  CA        32.7580   17.5760   28.7920 C.3   139  HIS139      0.1621
    171  C         33.0950   16.0960   28.7670 C.2   139  HIS139      0.2264
    172  O         33.5580   15.5510   29.7620 O.2   139  HIS139     -0.2867
    173  CB        34.0670   18.2760   28.4320 C.3   139  HIS139      0.0745
    174  CG        34.0370   19.7650   28.5570 C.ar  139  HIS139      0.0817
    175  ND1       33.9900   20.5940   27.4590 N.ar  139  HIS139     -0.2268
    176  CD2       34.0830   20.5720   29.6460 C.ar  139  HIS139      0.1154
    177  CE1       34.0060   21.8570   27.8710 C.ar  139  HIS139      0.1986
    178  NE2       34.0470   21.8680   29.1900 N.ar  139  HIS139     -0.2212
@<TRIPOS>BOND
     1    85    84    1
     2    85    86    1
     3    73    72    2
     4    84    78   am
     5    92    89    1
     6    88    86   am
     7    88    89    1
     8    86    87    2
     9    72    71    1
    10    78    79    2
    11    78    77    1
    12    89    90    1
    13    74    71    1
    14    74    75    1
    15    76    77    1
    16    71    70    1
    17    77    80    1
    18    91    90    2
    19    90    93   am
    20    67    66    2
    21    70    66   am
    22    80    81    1
    23    93    94    1
    24    66    65    1
    25    83    81    1
    26    81    82    1
    27    94    97    1
    28    94    95    1
    29   116   114   am
    30     4     3    2
    31     1     2    1
    32   115   114    2
    33    97    98    1
    34    69    68    1
    35    99   101   ar
    36    99    98   ar
    37    95    96    2
    38    65    68    1
    39    65    64    1
    40    52    53    2
    41    52    51    1
    42   114   113    1
    43    64    58   am
    44   101   103   ar
    45    98   100   ar
    46     7     9   ar
    47     7     6   ar
    48     3     2    1
    49     9    10   ar
    50     2     5    1
    51   124   123    1
    52    51    54    1
    53    51    50    1
    54    58    57    1
    55    58    59    2
    56    49    47    1
    57    55    54    1
    58    56    57    1
    59   103   102   ar
    60   113   112    1
    61   100   102   ar
    62     6     5    1
    63     6     8   ar
    64    57    60    1
    65    48    47    1
    66    10     8   ar
    67    47    46    2
    68   112   109    1
    69   123   122    1
    70    62    61   ar
    71    11    12    1
    72    60    61    1
    73   153   151   ar
    74   153   152   ar
    75    46    45    1
    76    61    63   ar
    77   122   121    1
    78   151   149   ar
    79    14    13    2
    80   109   110    1
    81   109   108    1
    82    15    12    1
    83    15    16    1
    84   111   110    2
    85    12    13    1
    86   152   150   ar
    87   110   117   am
    88    18    16    1
    89    27    26    1
    90    45    44    1
    91   108   106   am
    92   149   148   ar
    93   107   106    2
    94   117   118    1
    95    16    17    1
    96   121   118    1
    97    26    25    1
    98   106   105    1
    99   118   119    1
   100   150   148   ar
   101    25    24    1
   102   175   177   ar
   103   175   174   ar
   104    44    43    1
   105   148   147    1
   106   104   105    1
   107   177   178   ar
   108    24    23    1
   109    43    40    1
   110   173   174    1
   111   173   170    1
   112    42    41    2
   113   174   176   ar
   114   119   125   am
   115   119   120    2
   116   146   145    2
   117   171   170    1
   118   171   172    2
   119   170   169    1
   120    19    20    1
   121    23    20    1
   122   168   167    1
   123   157   156    2
   124   147   144    1
   125   125   126    1
   126   155   158    1
   127   155   154    1
   128   155   156    1
   129   178   176   ar
   130   159   158    1
   131   159   160    1
   132   145   154   am
   133   145   144    1
   134   161   160   ar
   135   167   164    1
   136    41    40    1
   137    40    39    1
   138    20    21    1
   139   160   162   ar
   140   144   143    1
   141   133   131   am
   142   130   131    1
   143   130   129    1
   144   166   165    2
   145   131   132    2
   146   126   129    1
   147   126   127    1
   148   128   127    2
   149   164   165    1
   150   164   163    1
   151    22    21    2
   152    39    30   am
   153    34    33    1
   154    34    35    1
   155    37    36    1
   156    33    32    1
   157   127   134   am
   158    30    31    2
   159    30    29    1
   160    35    36    2
   161    36    38    1
   162   134   135    1
   163    32    29    1
   164   137   136    2
   165    29    28    1
   166   135   136    1
   167   135   138    1
   168   142   141    1
   169   140   141    1
   170   140   139    1
   171   138   139    1
