@<TRIPOS>MOLECULE
tmp/2itmA00.pdb
 111 108 0 0 0
SMALL
GASTEIGER

@<TRIPOS>ATOM
      1  N         14.7210   73.1310   94.4590 N.3     9  THR9       -0.1218
      2  CA        14.1550   72.8030   93.1690 C.3     9  THR9        0.1862
      3  C         12.6340   72.6810   93.2460 C.2     9  THR9        0.2287
      4  O         11.9370   73.1180   92.3620 O.2     9  THR9       -0.2866
      5  CB        14.7740   71.5230   92.6140 C.3     9  THR9        0.1770
      6  OG1       16.1830   71.5310   92.8370 O.3     9  THR9       -0.2211
      7  CG2       14.6870   71.5160   91.1240 C.3     9  THR9        0.0375
      8  N         19.6790   75.7340   95.0970 N.3    76  GLN76      -0.1231
      9  CA        19.9930   74.7520   94.0850 C.3    76  GLN76       0.1698
     10  C         21.1510   75.2070   93.2050 C.2    76  GLN76       0.2592
     11  O         21.1470   76.2980   92.6700 O.2    76  GLN76      -0.2718
     12  CB        18.7530   74.4120   93.2490 C.3    76  GLN76       0.0381
     13  CG        18.1870   75.5700   92.4590 C.3    76  GLN76       0.0905
     14  CD        17.2130   75.1510   91.3740 C.2    76  GLN76       0.2608
     15  OE1       17.5890   74.5160   90.4100 O.2    76  GLN76      -0.2717
     16  NE2       15.9630   75.5330   91.5350 N.am   76  GLN76      -0.0878
     17  N         22.1410   74.3470   93.0780 N.am   77  MET77      -0.1965
     18  CA        23.3990   74.7120   92.4620 C.3    77  MET77       0.1736
     19  C         23.3100   74.6310   90.9350 C.2    77  MET77       0.2616
     20  O         22.4090   74.0170   90.4030 O.2    77  MET77      -0.2715
     21  CB        24.5180   73.8230   92.9980 C.3    77  MET77       0.0427
     22  CG        24.6300   73.7990   94.5230 C.3    77  MET77       0.0599
     23  SD        25.7310   72.5410   95.1500 S.3    77  MET77      -0.1393
     24  CE        27.2690   73.2260   94.6720 C.3    77  MET77       0.0692
     25  N         24.2550   75.2620   90.2490 N.am   78  HIS78      -0.1973
     26  CA        24.5330   74.9670   88.8500 C.3    78  HIS78       0.1656
     27  C         23.5080   75.4030   87.8000 C.2    78  HIS78       0.2291
     28  O         23.6920   75.1490   86.6250 O.2    78  HIS78      -0.2864
     29  CB        24.5870   73.4660   88.6110 C.3    78  HIS78       0.0771
     30  CG        25.5210   72.7400   89.5190 C.ar   78  HIS78       0.0820
     31  ND1       26.8550   73.0530   89.6200 N.ar   78  HIS78      -0.2267
     32  CD2       25.3130   71.7040   90.3580 C.ar   78  HIS78       0.1154
     33  CE1       27.4270   72.2440   90.4860 C.ar   78  HIS78       0.1986
     34  NE2       26.5120   71.4190   90.9510 N.ar   78  HIS78      -0.2212
     35  N         20.2210   72.0370   87.3780 N.3    96  TRP96      -0.1241
     36  CA        21.2540   71.0700   87.6990 C.3    96  TRP96       0.1605
     37  C         20.9110   69.6780   87.1990 C.2    96  TRP96       0.2264
     38  O         21.7890   68.9320   86.8190 O.2    96  TRP96      -0.2867
     39  CB        21.4820   71.0270   89.2120 C.3    96  TRP96       0.0550
     40  CG        20.2910   70.5650   89.9370 C.ar   96  TRP96       0.0003
     41  CD1       19.2400   71.3060   90.2990 C.ar   96  TRP96       0.0946
     42  CD2       20.0010   69.2320   90.3410 C.ar   96  TRP96       0.0152
     43  NE1       18.3010   70.5340   90.9290 N.ar   96  TRP96      -0.2442
     44  CE2       18.7500   69.2480   90.9620 C.ar   96  TRP96       0.0810
     45  CE3       20.6780   68.0150   90.2410 C.ar   96  TRP96       0.0012
     46  CZ2       18.1640   68.1110   91.4830 C.ar   96  TRP96       0.0191
     47  CZ3       20.1020   66.8960   90.7560 C.ar   96  TRP96       0.0001
     48  CH2       18.8590   66.9470   91.3760 C.ar   96  TRP96       0.0015
     49  N         26.3820   70.8670   85.2400 N.3   127  PHE127     -0.1241
     50  CA        27.1900   72.0360   85.5170 C.3   127  PHE127      0.1605
     51  C         26.9460   73.1550   84.5230 C.2   127  PHE127      0.2264
     52  O         26.4860   72.9280   83.4230 O.2   127  PHE127     -0.2867
     53  CB        28.6670   71.6770   85.5540 C.3   127  PHE127      0.0534
     54  CG        29.0330   70.6920   86.6250 C.ar  127  PHE127     -0.0203
     55  CD1       30.2750   70.0930   86.6330 C.ar  127  PHE127     -0.0042
     56  CD2       28.1460   70.3680   87.6230 C.ar  127  PHE127     -0.0042
     57  CE1       30.6150   69.1950   87.6000 C.ar  127  PHE127     -0.0003
     58  CE2       28.4770   69.4750   88.5850 C.ar  127  PHE127     -0.0003
     59  CZ        29.7100   68.8820   88.5780 C.ar  127  PHE127     -0.0000
     60  N         23.3930   74.9740   98.0290 N.3   233  ASP233     -0.1225
     61  CA        22.6000   74.2490   99.0050 C.3   233  ASP233      0.1805
     62  C         23.3680   73.2460   99.8650 C.2   233  ASP233      0.2597
     63  O         23.2040   73.2190  101.0660 O.2   233  ASP233     -0.2718
     64  CB        21.3490   73.6320   98.3820 C.3   233  ASP233      0.1424
     65  CG        21.6560   72.6530   97.2700 C.2   233  ASP233      0.3668
     66  OD1       22.8320   72.3570   97.0100 O.co2 233  ASP233     -0.2456
     67  OD2       20.7680   72.1240   96.5990 O.co2 233  ASP233     -0.2456
     68  N         24.2130   72.4320   99.2490 N.am  234  ASN234     -0.1974
     69  CA        25.0740   71.5390  100.0060 C.3   234  ASN234      0.1688
     70  C         25.9610   72.2600  101.0140 C.2   234  ASN234      0.2292
     71  O         25.8960   71.9850  102.1950 O.2   234  ASN234     -0.2864
     72  CB        25.9040   70.6400   99.0900 C.3   234  ASN234      0.1181
     73  CG        25.0570   69.7100   98.2600 C.2   234  ASN234      0.2629
     74  OD1       24.2190   69.0070   98.7700 O.2   234  ASN234     -0.2716
     75  ND2       25.2780   69.7140   96.9710 N.am  234  ASN234     -0.0877
     76  N         33.3750   65.1600   93.8220 N.3   275  HIS275     -0.1241
     77  CA        33.4630   66.5530   93.4630 C.3   275  HIS275      0.1621
     78  C         34.1820   67.4100   94.4790 C.2   275  HIS275      0.2264
     79  O         34.0940   67.1830   95.6670 O.2   275  HIS275     -0.2867
     80  CB        32.0980   67.0980   93.1270 C.3   275  HIS275      0.0745
     81  CG        31.5240   66.4910   91.8970 C.ar  275  HIS275      0.0817
     82  ND1       30.2780   65.9160   91.8610 N.ar  275  HIS275     -0.2268
     83  CD2       32.0550   66.3230   90.6690 C.ar  275  HIS275      0.1154
     84  CE1       30.0530   65.4440   90.6540 C.ar  275  HIS275      0.1986
     85  NE2       31.1170   65.6750   89.9110 N.ar  275  HIS275     -0.2212
     86  N         34.8680   71.4040   95.5250 N.3   277  PHE277     -0.1241
     87  CA        34.4630   72.7920   95.4300 C.3   277  PHE277      0.1605
     88  C         35.0160   73.6400   96.5520 C.2   277  PHE277      0.2264
     89  O         35.5010   73.1260   97.5520 O.2   277  PHE277     -0.2867
     90  CB        32.9440   72.9020   95.4360 C.3   277  PHE277      0.0534
     91  CG        32.2650   72.1570   94.3490 C.ar  277  PHE277     -0.0203
     92  CD1       31.2940   71.2300   94.6350 C.ar  277  PHE277     -0.0042
     93  CD2       32.5760   72.4010   93.0340 C.ar  277  PHE277     -0.0042
     94  CE1       30.6650   70.5520   93.6420 C.ar  277  PHE277     -0.0003
     95  CE2       31.9390   71.7310   92.0320 C.ar  277  PHE277     -0.0003
     96  CZ        30.9790   70.8100   92.3320 C.ar  277  PHE277     -0.0000
     97  N         32.5330   66.3930   97.8340 N.3   288  MET288     -0.1245
     98  CA        31.1990   65.8450   97.9590 C.3   288  MET288      0.1570
     99  C         30.8970   64.7530   96.9460 C.2   288  MET288      0.2261
    100  O         31.4810   64.7030   95.8740 O.2   288  MET288     -0.2867
    101  CB        30.1370   66.9520   97.9720 C.3   288  MET288      0.0387
    102  CG        29.4710   67.2340   96.6570 C.3   288  MET288      0.0595
    103  SD        28.3120   65.9550   96.1780 S.3   288  MET288     -0.1393
    104  CE        26.8620   66.9110   95.8400 C.3   288  MET288      0.0692
    105  N         27.3270   62.4280   95.6140 N.3   290  VAL290     -0.1245
    106  CA        25.9660   61.9630   95.7070 C.3   290  VAL290      0.1561
    107  C         25.9510   60.5500   96.2630 C.2   290  VAL290      0.2260
    108  O         26.7510   59.7160   95.8840 O.2   290  VAL290     -0.2867
    109  CB        25.2140   62.0550   94.3870 C.3   290  VAL290      0.0252
    110  CG1       23.8030   61.5930   94.5520 C.3   290  VAL290      0.0019
    111  CG2       25.2170   63.4600   93.8920 C.3   290  VAL290      0.0019
@<TRIPOS>BOND
     1    52    51    2
     2    51    50    1
     3    49    50    1
     4    50    53    1
     5    53    54    1
     6    28    27    2
     7    54    55   ar
     8    54    56   ar
     9    55    57   ar
    10    38    37    2
    11    37    36    1
    12    35    36    1
    13    57    59   ar
    14    56    58   ar
    15    36    39    1
    16    27    26    1
    17    59    58   ar
    18    29    26    1
    19    29    30    1
    20    26    25    1
    21    39    40    1
    22    30    31   ar
    23    30    32   ar
    24    31    33   ar
    25    85    84   ar
    26    85    83   ar
    27    40    41   ar
    28    40    42   ar
    29    45    42   ar
    30    45    47   ar
    31    25    19   am
    32    41    43   ar
    33    42    44   ar
    34    32    34   ar
    35    20    19    2
    36    15    14    2
    37    33    34   ar
    38    84    82   ar
    39    83    81   ar
    40    47    48   ar
    41    43    44   ar
    42    19    18    1
    43    44    46   ar
    44     7     5    1
    45    14    16   am
    46    14    13    1
    47    48    46   ar
    48    82    81   ar
    49    81    80    1
    50    95    96   ar
    51    95    93   ar
    52    96    94   ar
    53     4     3    2
    54    13    12    1
    55    18    21    1
    56    18    17    1
    57     5     6    1
    58     5     2    1
    59    11    10    2
    60    21    22    1
    61    93    91   ar
    62    17    10   am
    63    80    77    1
    64     2     3    1
    65     2     1    1
    66    10     9    1
    67    12     9    1
    68    77    76    1
    69    77    78    1
    70    94    92   ar
    71   111   109    1
    72     9     8    1
    73    91    92   ar
    74    91    90    1
    75   109   110    1
    76   109   106    1
    77    78    79    2
    78    22    23    1
    79    24    23    1
    80    87    90    1
    81    87    86    1
    82    87    88    1
    83   105   106    1
    84   106   107    1
    85   104   103    1
    86   100    99    2
    87   108   107    2
    88   103   102    1
    89    88    89    2
    90    67    65   ar
    91   102   101    1
    92    99    98    1
    93    75    73   am
    94    66    65   ar
    95    65    64    1
    96    97    98    1
    97    98   101    1
    98    60    61    1
    99    73    74    2
   100    73    72    1
   101    64    61    1
   102    61    62    1
   103    72    69    1
   104    68    62   am
   105    68    69    1
   106    62    63    2
   107    69    70    1
   108    70    71    2
