@<TRIPOS>MOLECULE
tmp/2itqA00.pdb
 176 163 0 0 0
SMALL
GASTEIGER

@<TRIPOS>ATOM
      1  N        -45.4060    4.1430  -18.7660 N.3    22  LEU22      -0.1231
      2  CA       -46.2560    3.1760  -18.1100 C.3    22  LEU22       0.1693
      3  C        -45.7330    1.7940  -18.4880 C.2    22  LEU22       0.2592
      4  O        -46.1150    0.7780  -17.9090 O.2    22  LEU22      -0.2718
      5  CB       -47.6920    3.3180  -18.5990 C.3    22  LEU22       0.0284
      6  CG       -48.5860    4.5050  -18.2680 C.3    22  LEU22       0.0019
      7  CD1      -49.8800    4.3810  -19.0830 C.3    22  LEU22       0.0001
      8  CD2      -48.8940    4.5890  -16.7790 C.3    22  LEU22       0.0001
      9  N        -44.8590    1.7420  -19.4750 N.am   23  SER23      -0.1952
     10  CA       -44.3090    0.4690  -19.8500 C.3    23  SER23       0.1924
     11  C        -43.5010    0.5650  -21.1120 C.2    23  SER23       0.2314
     12  O        -44.0380    0.9140  -22.1680 O.2    23  SER23      -0.2863
     13  CB       -45.4340   -0.5520  -20.0320 C.3    23  SER23       0.2116
     14  OG       -45.2490   -1.3070  -21.2150 O.3    23  SER23      -0.2180
     15  N        -41.3870   -4.6200  -27.7100 N.3    27  PHE27      -0.1241
     16  CA       -42.3690   -3.8430  -28.5070 C.3    27  PHE27       0.1605
     17  C        -42.0930   -2.3200  -28.5630 C.2    27  PHE27       0.2264
     18  O        -42.2820   -1.6980  -29.6030 O.2    27  PHE27      -0.2867
     19  CB       -43.8280   -4.1070  -28.0070 C.3    27  PHE27       0.0534
     20  CG       -44.1100   -3.5580  -26.6080 C.ar   27  PHE27      -0.0203
     21  CD1      -44.5310   -2.2280  -26.4270 C.ar   27  PHE27      -0.0042
     22  CD2      -43.9140   -4.3590  -25.4690 C.ar   27  PHE27      -0.0042
     23  CE1      -44.7450   -1.7070  -25.1360 C.ar   27  PHE27      -0.0003
     24  CE2      -44.1340   -3.8500  -24.1820 C.ar   27  PHE27      -0.0003
     25  CZ       -44.5550   -2.5210  -24.0180 C.ar   27  PHE27      -0.0000
     26  N        -44.9620    2.8270  -23.8230 N.3    30  VAL30      -0.1245
     27  CA       -46.3310    3.3430  -23.6960 C.3    30  VAL30       0.1561
     28  C        -46.3950    4.4460  -22.6540 C.2    30  VAL30       0.2260
     29  O        -45.9020    4.2580  -21.5410 O.2    30  VAL30      -0.2867
     30  CB       -47.3060    2.2530  -23.2880 C.3    30  VAL30       0.0252
     31  CG1      -48.6230    2.8600  -22.8640 C.3    30  VAL30       0.0019
     32  CG2      -47.5350    1.2800  -24.4220 C.3    30  VAL30       0.0019
     33  N        -53.3680    6.8930  -23.7010 N.3    47  ALA47      -0.1245
     34  CA       -52.1280    6.1790  -23.6540 C.3    47  ALA47       0.1562
     35  C        -51.5250    6.3740  -25.0180 C.2    47  ALA47       0.2260
     36  O        -52.2340    6.2380  -26.0160 O.2    47  ALA47      -0.2867
     37  CB       -52.3480    4.7340  -23.3820 C.3    47  ALA47       0.0290
     38  N        -48.7240    5.1140  -27.6350 N.3    49  LYS49      -0.1245
     39  CA       -47.7890    4.0390  -27.9250 C.3    49  LYS49       0.1561
     40  C        -46.8330    4.4210  -29.0540 C.2    49  LYS49       0.2260
     41  O        -47.2510    4.9390  -30.0880 O.2    49  LYS49      -0.2867
     42  CB       -48.5140    2.7270  -28.2440 C.3    49  LYS49       0.0271
     43  CG       -47.5990    1.5220  -28.4500 C.3    49  LYS49       0.0035
     44  CD       -48.4410    0.3340  -28.8440 C.3    49  LYS49       0.0206
     45  CE       -47.6190   -0.8460  -29.2770 C.3    49  LYS49       0.1093
     46  NZ       -48.5790   -1.8010  -29.9160 N.3    49  LYS49      -0.1314
     47  N        -51.8730   -1.7290  -36.8500 N.3    66  GLU66      -0.1245
     48  CA       -52.6810   -1.8150  -35.6530 C.3    66  GLU66       0.1567
     49  C        -53.7390   -0.7550  -35.7760 C.2    66  GLU66       0.2260
     50  O        -54.9160   -1.0050  -35.5070 O.2    66  GLU66      -0.2867
     51  CB       -51.8620   -1.5440  -34.4070 C.3    66  GLU66       0.0388
     52  CG       -50.8960   -2.6440  -34.0160 C.3    66  GLU66       0.1160
     53  CD       -50.5120   -2.5170  -32.5600 C.2    66  GLU66       0.3649
     54  OE1      -49.3130   -2.3660  -32.2340 O.co2  66  GLU66      -0.2457
     55  OE2      -51.4390   -2.5240  -31.7310 O.co2  66  GLU66      -0.2457
     56  N        -57.6500   -1.0130  -35.2670 N.3    70  MET70      -0.1245
     57  CA       -58.3030   -0.2620  -34.2080 C.3    70  MET70       0.1570
     58  C        -59.1860    0.8680  -34.6950 C.2    70  MET70       0.2261
     59  O        -60.1250    1.2360  -33.9920 O.2    70  MET70      -0.2867
     60  CB       -57.2990    0.2900  -33.2220 C.3    70  MET70       0.0387
     61  CG       -56.7500   -0.7450  -32.2660 C.3    70  MET70       0.0595
     62  SD       -55.8670    0.0770  -30.9280 S.3    70  MET70      -0.1393
     63  CE       -54.1850   -0.2770  -31.4160 C.3    70  MET70       0.0692
     64  N        -61.0500   -1.7710  -27.1930 N.3    79  CYS79      -0.1235
     65  CA       -60.2880   -0.5460  -26.9620 C.3    79  CYS79       0.1677
     66  C        -60.4130    0.5330  -28.0460 C.2    79  CYS79       0.2270
     67  O        -60.3570    0.2520  -29.2440 O.2    79  CYS79      -0.2867
     68  CB       -58.8430   -0.9000  -26.7080 C.3    79  CYS79       0.0956
     69  SG       -57.9320    0.4710  -25.9700 S.3    79  CYS79      -0.0801
     70  N        -49.2590    5.8410  -31.6820 N.3    92  LEU92      -0.1245
     71  CA       -50.6280    5.3910  -31.5380 C.3    92  LEU92       0.1561
     72  C        -51.2500    6.0860  -30.3340 C.2    92  LEU92       0.2260
     73  O        -50.6580    6.0910  -29.2540 O.2    92  LEU92      -0.2867
     74  CB       -50.5920    3.8960  -31.3320 C.3    92  LEU92       0.0270
     75  CG       -51.7520    3.0840  -31.8820 C.3    92  LEU92       0.0019
     76  CD1      -51.6070    2.8370  -33.3620 C.3    92  LEU92       0.0001
     77  CD2      -51.7790    1.7760  -31.1500 C.3    92  LEU92       0.0001
     78  N        -54.4650    5.9550  -27.9350 N.3    94  THR94      -0.1203
     79  CA       -55.6070    5.2020  -27.5330 C.3    94  THR94       0.1994
     80  C        -56.0900    5.7590  -26.2320 C.2    94  THR94       0.2618
     81  O        -55.4240    6.5770  -25.6230 O.2    94  THR94      -0.2717
     82  CB       -55.2510    3.7430  -27.2740 C.3    94  THR94       0.1784
     83  OG1      -54.5650    3.6450  -26.0290 O.3    94  THR94      -0.2211
     84  CG2      -54.3660    3.1920  -28.3500 C.3    94  THR94       0.0376
     85  N        -57.2600    5.3050  -25.8140 N.am   95  GLN95      -0.1965
     86  CA       -57.8540    5.6720  -24.5460 C.3    95  GLN95       0.1733
     87  C        -57.0590    5.0630  -23.3790 C.2    95  GLN95       0.2616
     88  O        -56.6330    3.8960  -23.4470 O.2    95  GLN95      -0.2715
     89  CB       -59.2550    5.1750  -24.5790 C.3    95  GLN95       0.0408
     90  CG       -59.7660    4.7300  -23.3150 C.3    95  GLN95       0.0908
     91  CD       -61.1470    4.1370  -23.4790 C.2    95  GLN95       0.2608
     92  OE1      -61.3510    3.1920  -24.2890 O.2    95  GLN95      -0.2717
     93  NE2      -62.1220    4.6960  -22.7340 N.am   95  GLN95      -0.0878
     94  N        -56.8050    5.8900  -22.3360 N.am   96  LEU96      -0.1963
     95  CA       -56.1240    5.4250  -21.1180 C.3    96  LEU96       0.1728
     96  C        -56.9530    4.3290  -20.4170 C.2    96  LEU96       0.2616
     97  O        -58.1400    4.4870  -20.1610 O.2    96  LEU96      -0.2715
     98  CB       -55.9230    6.5740  -20.1570 C.3    96  LEU96       0.0311
     99  CG       -55.1010    6.1640  -18.9250 C.3    96  LEU96       0.0022
    100  CD1      -53.8260    5.5000  -19.2830 C.3    96  LEU96       0.0001
    101  CD2      -54.8120    7.3390  -18.0590 C.3    96  LEU96       0.0001
    102  N        -56.3370    3.2110  -20.1050 N.am   97  MET97      -0.1964
    103  CA       -57.0570    2.2160  -19.3240 C.3    97  MET97       0.1722
    104  C        -56.4260    2.1620  -17.9280 C.2    97  MET97       0.2458
    105  O        -55.5940    1.3330  -17.6610 O.2    97  MET97      -0.2730
    106  CB       -57.0230    0.8590  -20.0430 C.3    97  MET97       0.0427
    107  CG       -57.6270    0.8450  -21.4780 C.3    97  MET97       0.0599
    108  SD       -59.3830    1.2690  -21.5400 S.3    97  MET97      -0.1393
    109  CE       -60.0590   -0.2530  -20.8920 C.3    97  MET97       0.0692
    110  N        -56.8610    3.0440  -17.0190 N.am   98  PRO98      -0.2727
    111  CA       -55.9900    3.3240  -15.8660 C.3    98  PRO98       0.1402
    112  C        -55.5900    2.0740  -15.0640 C.2    98  PRO98       0.2269
    113  O        -54.4270    1.9540  -14.6970 O.2    98  PRO98      -0.2865
    114  CB       -56.8310    4.2810  -14.9970 C.3    98  PRO98       0.0296
    115  CG       -57.9190    4.8400  -15.9090 C.3    98  PRO98       0.0237
    116  CD       -58.1610    3.7660  -16.9450 C.3    98  PRO98       0.0939
    117  N        -54.9240   -0.8150  -15.7750 N.3   100  GLY100     -0.1210
    118  CA       -53.9260   -1.6580  -16.4020 C.3   100  GLY100      0.1956
    119  C        -54.4700   -2.9490  -16.9790 C.2   100  GLY100      0.2612
    120  O        -55.6600   -3.0750  -17.2600 O.2   100  GLY100     -0.2717
    121  N        -53.5700   -3.9020  -17.1450 N.am  101  CYS101     -0.1970
    122  CA       -53.8030   -5.1480  -17.7950 C.3   101  CYS101      0.1712
    123  C        -54.5490   -6.0760  -16.8300 C.2   101  CYS101      0.2296
    124  O        -54.2780   -6.0610  -15.6230 O.2   101  CYS101     -0.2864
    125  CB       -52.4310   -5.6970  -18.1170 C.3   101  CYS101      0.0983
    126  SG       -52.3420   -7.4110  -18.5270 S.3   101  CYS101     -0.0798
    127  N        -52.5100   -8.7360  -14.7240 N.3   104  ASP104     -0.1239
    128  CA       -51.8860   -8.2160  -13.5280 C.3   104  ASP104      0.1674
    129  C        -52.9120   -7.8370  -12.5140 C.2   104  ASP104      0.2266
    130  O        -52.5940   -7.7860  -11.3400 O.2   104  ASP104     -0.2867
    131  CB       -51.0370   -6.9850  -13.8000 C.3   104  ASP104      0.1410
    132  CG       -49.8480   -7.2770  -14.6820 C.2   104  ASP104      0.3668
    133  OD1      -49.1500   -6.2920  -15.0160 O.co2 104  ASP104     -0.2456
    134  OD2      -49.5970   -8.4540  -15.0550 O.co2 104  ASP104     -0.2456
    135  N        -53.5690  -11.0140  -20.8000 N.3   145  ARG145     -0.1231
    136  CA       -52.5610   -9.9020  -20.8440 C.3   145  ARG145      0.1694
    137  C        -53.0530   -8.8030  -21.8340 C.2   145  ARG145      0.2592
    138  O        -52.7460   -7.6240  -21.6760 O.2   145  ARG145     -0.2718
    139  CB       -51.1440  -10.3870  -21.2100 C.3   145  ARG145      0.0321
    140  CG       -51.0420  -10.7740  -22.6610 C.3   145  ARG145      0.0489
    141  CD       -49.6820  -11.3380  -23.0320 C.3   145  ARG145      0.2205
    142  NE       -49.8130  -12.7640  -23.2580 N.pl3 145  ARG145     -0.0865
    143  CZ       -50.2160  -13.3210  -24.3990 C.cat 145  ARG145      0.5346
    144  NH1      -50.4840  -12.5470  -25.4490 N.pl3 145  ARG145      0.1354
    145  NH2      -50.3420  -14.6480  -24.4980 N.pl3 145  ARG145      0.1354
    146  N        -53.8570   -9.2160  -22.8050 N.am  146  ASN146     -0.1974
    147  CA       -54.3790   -8.3390  -23.8160 C.3   146  ASN146      0.1688
    148  C        -55.8020   -7.7970  -23.5680 C.2   146  ASN146      0.2292
    149  O        -56.4940   -7.4110  -24.5030 O.2   146  ASN146     -0.2864
    150  CB       -54.2890   -9.0860  -25.1470 C.3   146  ASN146      0.1181
    151  CG       -52.8390   -9.2100  -25.6210 C.2   146  ASN146      0.2629
    152  OD1      -51.9630   -8.4350  -25.1720 O.2   146  ASN146     -0.2716
    153  ND2      -52.5710  -10.1780  -26.5020 N.am  146  ASN146     -0.0877
    154  N        -57.7130   -4.9570  -21.0770 N.3   148  LEU148     -0.1245
    155  CA       -57.3500   -3.9300  -20.1150 C.3   148  LEU148      0.1561
    156  C        -58.5410   -3.5070  -19.3110 C.2   148  LEU148      0.2260
    157  O        -59.7200   -3.8110  -19.6840 O.2   148  LEU148     -0.2867
    158  CB       -56.7550   -2.6980  -20.7930 C.3   148  LEU148      0.0270
    159  CG       -55.5180   -2.9640  -21.6730 C.3   148  LEU148      0.0019
    160  CD1      -54.8760   -1.6530  -21.9850 C.3   148  LEU148      0.0001
    161  CD2      -54.4460   -3.9310  -21.0550 C.3   148  LEU148      0.0001
    162  N        -57.8060   -5.5520  -26.1830 N.3   158  THR158     -0.1203
    163  CA       -56.8210   -4.7310  -26.8580 C.3   158  THR158      0.1994
    164  C        -55.7970   -5.5630  -27.6450 C.2   158  THR158      0.2617
    165  O        -56.0720   -6.7020  -28.0590 O.2   158  THR158     -0.2717
    166  CB       -56.0810   -3.8150  -25.8790 C.3   158  THR158      0.1784
    167  OG1      -57.0370   -2.9540  -25.2500 O.3   158  THR158     -0.2211
    168  CG2      -55.1550   -2.9030  -26.6610 C.3   158  THR158      0.0376
    169  N        -54.6190   -4.9810  -27.8420 N.am  159  ASP159     -0.1973
    170  CA       -53.5440   -5.5890  -28.6090 C.3   159  ASP159      0.1709
    171  C        -54.0550   -6.3020  -29.8470 C.2   159  ASP159      0.2293
    172  O        -54.3750   -7.5050  -29.8350 O.2   159  ASP159     -0.2864
    173  CB       -52.6690   -6.4900  -27.7510 C.3   159  ASP159      0.1436
    174  CG       -51.2620   -6.5990  -28.3010 C.2   159  ASP159      0.3671
    175  OD1      -51.1000   -7.2010  -29.3890 O.co2 159  ASP159     -0.2456
    176  OD2      -50.3250   -6.0560  -27.6480 O.co2 159  ASP159     -0.2456
@<TRIPOS>BOND
     1    47    48    1
     2    49    48    1
     3    49    50    2
     4    48    51    1
     5    56    57    1
     6    58    57    1
     7    58    59    2
     8    51    52    1
     9    57    60    1
    10    52    53    1
    11    76    75    1
    12    60    61    1
    13    53    54   ar
    14    53    55   ar
    15    61    62    1
    16    75    74    1
    17    75    77    1
    18    70    71    1
    19    71    74    1
    20    71    72    1
    21    63    62    1
    22    72    73    2
    23    41    40    2
    24    46    45    1
    25   171   172    2
    26   171   170    1
    27    18    17    2
    28   175   174   ar
    29    45    44    1
    30    67    66    2
    31    40    39    1
    32    44    43    1
    33   170   169    1
    34   170   173    1
    35    17    16    1
    36    16    19    1
    37    16    15    1
    38    43    42    1
    39    84    82    1
    40   174   173    1
    41   174   176   ar
    42    42    39    1
    43   165   164    2
    44    66    65    1
    45    19    20    1
    46    78    79    1
    47    39    38    1
    48   169   164   am
    49   164   163    1
    50    79    82    1
    51    79    80    1
    52    82    83    1
    53    64    65    1
    54    65    68    1
    55   163   162    1
    56   163   166    1
    57    68    69    1
    58   168   166    1
    59    20    21   ar
    60    20    22   ar
    61   153   151   am
    62    21    23   ar
    63    80    85   am
    64    80    81    2
    65    36    35    2
    66   166   167    1
    67    85    86    1
    68   151   152    2
    69   151   150    1
    70    22    24   ar
    71   144   143    1
    72   150   147    1
    73    23    25   ar
    74    35    34    1
    75    89    86    1
    76    89    90    1
    77    86    87    1
    78   149   148    2
    79   145   143    1
    80    32    30    1
    81   143   142    2
    82    92    91    2
    83    24    25   ar
    84    26    27    1
    85   147   148    1
    86   147   146    1
    87    33    34    1
    88    27    30    1
    89    27    28    1
    90    34    37    1
    91    91    90    1
    92    91    93   am
    93    88    87    2
    94    87    94   am
    95    30    31    1
    96   142   141    1
    97   141   140    1
    98   146   137   am
    99   140   139    1
   100    28    29    2
   101    94    95    1
   102    12    11    2
   103   160   159    1
   104   137   138    2
   105   137   136    1
   106   159   161    1
   107   159   158    1
   108   108   107    1
   109   108   109    1
   110   107   106    1
   111    14    13    1
   112   139   136    1
   113    95    96    1
   114    95    98    1
   115    11    10    1
   116   154   155    1
   117   136   135    1
   118   158   155    1
   119    96    97    2
   120    96   102   am
   121    98    99    1
   122   155   156    1
   123   102   103    1
   124   106   103    1
   125    13    10    1
   126    10     9    1
   127   157   156    2
   128     9     3   am
   129   103   104    1
   130   100    99    1
   131     7     6    1
   132    99   101    1
   133     1     2    1
   134     5     6    1
   135     5     2    1
   136   126   125    1
   137     3     2    1
   138     3     4    2
   139     6     8    1
   140   125   122    1
   141   104   105    2
   142   104   110   am
   143   122   121    1
   144   122   123    1
   145   120   119    2
   146   121   119   am
   147   110   116    1
   148   110   111    1
   149   119   118    1
   150   116   115    1
   151   123   124    2
   152   118   117    1
   153   115   114    1
   154   111   112    1
   155   111   114    1
   156   112   113    2
   157   134   132   ar
   158   133   132   ar
   159   127   128    1
   160   132   131    1
   161   131   128    1
   162   128   129    1
   163   129   130    2
