@<TRIPOS>MOLECULE
tmp/2iu8A01.pdb
 104 103 0 0 0
SMALL
GASTEIGER

@<TRIPOS>ATOM
      1  N         33.6330  -90.6590  -31.2770 N.3   190  PHE190     -0.1227
      2  CA        33.7840  -91.4830  -30.0730 C.3   190  PHE190      0.1736
      3  C         33.6430  -90.6530  -28.7910 C.2   190  PHE190      0.2596
      4  O         34.6130  -90.4700  -28.0510 O.2   190  PHE190     -0.2718
      5  CB        35.1270  -92.2140  -30.0960 C.3   190  PHE190      0.0547
      6  CG        35.1980  -93.3730  -29.1490 C.ar  190  PHE190     -0.0202
      7  CD1       34.3900  -94.4910  -29.3400 C.ar  190  PHE190     -0.0042
      8  CD2       36.0730  -93.3560  -28.0730 C.ar  190  PHE190     -0.0042
      9  CE1       34.4510  -95.5640  -28.4800 C.ar  190  PHE190     -0.0003
     10  CE2       36.1420  -94.4410  -27.1990 C.ar  190  PHE190     -0.0003
     11  CZ        35.3260  -95.5470  -27.4080 C.ar  190  PHE190     -0.0000
     12  N         32.4240  -90.1660  -28.5340 N.am  191  GLY191     -0.1942
     13  CA        32.1420  -89.2490  -27.4320 C.3   191  GLY191      0.2014
     14  C         30.8680  -89.6470  -26.7200 C.2   191  GLY191      0.2638
     15  O         29.8720  -90.0060  -27.3610 O.2   191  GLY191     -0.2714
     16  N         30.9230  -89.6130  -25.3910 N.am  192  TYR192     -0.1973
     17  CA        29.8600  -90.1430  -24.5200 C.3   192  TYR192      0.1639
     18  C         29.6240  -89.2720  -23.2900 C.2   192  TYR192      0.2290
     19  O         30.4590  -88.4470  -22.9220 O.2   192  TYR192     -0.2864
     20  CB        30.2090  -91.5780  -24.0730 C.3   192  TYR192      0.0560
     21  CG        30.3110  -92.5210  -25.2450 C.ar  192  TYR192     -0.0198
     22  CD1       31.5280  -92.7220  -25.8830 C.ar  192  TYR192     -0.0009
     23  CD2       29.1780  -93.1740  -25.7530 C.ar  192  TYR192     -0.0009
     24  CE1       31.6270  -93.5580  -26.9940 C.ar  192  TYR192      0.0417
     25  CE2       29.2730  -94.0330  -26.8660 C.ar  192  TYR192      0.0417
     26  CZ        30.5060  -94.2140  -27.4790 C.ar  192  TYR192      0.1957
     27  OH        30.6500  -95.0500  -28.5800 O.3   192  TYR192     -0.2866
     28  N         29.1760  -89.6580  -19.1640 N.3   194  THR194     -0.1218
     29  CA        29.4880  -90.6060  -18.1060 C.3   194  THR194      0.1862
     30  C         28.4700  -90.5140  -17.0010 C.2   194  THR194      0.2287
     31  O         28.0440  -89.4170  -16.6110 O.2   194  THR194     -0.2866
     32  CB        30.8910  -90.4010  -17.5570 C.3   194  THR194      0.1770
     33  OG1       31.7720  -90.1260  -18.6460 O.3   194  THR194     -0.2211
     34  CG2       31.3740  -91.6590  -16.8560 C.3   194  THR194      0.0375
     35  N         30.2780  -83.5700  -32.8890 N.3   227  ARG227     -0.1231
     36  CA        29.0530  -83.6220  -32.1100 C.3   227  ARG227      0.1694
     37  C         28.0710  -82.5130  -32.5440 C.2   227  ARG227      0.2592
     38  O         26.8620  -82.7430  -32.6830 O.2   227  ARG227     -0.2718
     39  CB        29.4100  -83.4880  -30.6270 C.3   227  ARG227      0.0321
     40  CG        28.3230  -83.9150  -29.6590 C.3   227  ARG227      0.0489
     41  CD        28.6010  -83.4190  -28.2380 C.3   227  ARG227      0.2205
     42  NE        27.3570  -83.2570  -27.4740 N.pl3 227  ARG227     -0.0865
     43  CZ        27.2860  -83.0420  -26.1630 C.cat 227  ARG227      0.5346
     44  NH1       28.3840  -82.9480  -25.4290 N.pl3 227  ARG227      0.1354
     45  NH2       26.1040  -82.9150  -25.5850 N.pl3 227  ARG227      0.1354
     46  N         28.5930  -81.3140  -32.7670 N.am  228  PHE228     -0.1976
     47  CA        27.7790  -80.1910  -33.2620 C.3   228  PHE228      0.1639
     48  C         28.5870  -79.2870  -34.1920 C.2   228  PHE228      0.2290
     49  O         28.0370  -78.4070  -34.8580 O.2   228  PHE228     -0.2864
     50  CB        27.2110  -79.3850  -32.0990 C.3   228  PHE228      0.0560
     51  CG        28.2460  -78.8300  -31.1700 C.ar  228  PHE228     -0.0200
     52  CD1       28.7660  -79.6070  -30.1440 C.ar  228  PHE228     -0.0042
     53  CD2       28.6750  -77.5090  -31.3000 C.ar  228  PHE228     -0.0042
     54  CE1       29.7200  -79.1000  -29.2840 C.ar  228  PHE228     -0.0003
     55  CE2       29.6160  -76.9820  -30.4390 C.ar  228  PHE228     -0.0003
     56  CZ        30.1410  -77.7760  -29.4280 C.ar  228  PHE228     -0.0000
     57  N         36.3510  -86.8240  -34.2990 N.3   247  HIS247     -0.1226
     58  CA        35.2680  -85.9070  -34.3990 C.3   247  HIS247      0.1752
     59  C         35.7980  -84.4800  -34.2590 C.2   247  HIS247      0.2595
     60  O         36.4600  -84.1510  -33.2770 O.2   247  HIS247     -0.2718
     61  CB        34.2610  -86.2350  -33.3200 C.3   247  HIS247      0.0759
     62  CG        34.7670  -86.0350  -31.9320 C.ar  247  HIS247      0.0818
     63  ND1       35.2970  -87.0590  -31.1790 N.ar  247  HIS247     -0.2268
     64  CD2       34.8160  -84.9290  -31.1510 C.ar  247  HIS247      0.1154
     65  CE1       35.6450  -86.5960  -29.9920 C.ar  247  HIS247      0.1986
     66  NE2       35.3560  -85.3040  -29.9460 N.ar  247  HIS247     -0.2212
     67  N         35.5480  -83.6580  -35.2630 N.am  248  GLN248     -0.1979
     68  CA        35.7580  -82.2030  -35.1290 C.3   248  GLN248      0.1601
     69  C         37.2580  -81.8990  -35.3950 C.2   248  GLN248      0.2287
     70  O         37.7950  -80.8380  -35.0500 O.2   248  GLN248     -0.2864
     71  CB        35.2510  -81.7200  -33.7680 C.3   248  GLN248      0.0394
     72  CG        35.0350  -80.2060  -33.6400 C.3   248  GLN248      0.0908
     73  CD        34.9340  -79.7790  -32.1840 C.2   248  GLN248      0.2608
     74  OE1       34.1650  -80.3490  -31.3930 O.2   248  GLN248     -0.2717
     75  NE2       35.7070  -78.7590  -31.8180 N.am  248  GLN248     -0.0878
     76  N         43.1150  -87.6240  -33.0360 N.3   264  ALA264     -0.1231
     77  CA        42.0600  -87.6680  -32.0390 C.3   264  ALA264      0.1694
     78  C         41.2080  -86.3990  -32.1030 C.2   264  ALA264      0.2593
     79  O         41.5400  -85.4580  -32.8180 O.2   264  ALA264     -0.2718
     80  CB        42.6190  -87.8760  -30.6550 C.3   264  ALA264      0.0304
     81  N         40.1150  -86.3850  -31.3520 N.am  265  GLY265     -0.1942
     82  CA        39.0740  -85.4080  -31.5410 C.3   265  GLY265      0.2014
     83  C         39.5410  -84.0040  -31.2950 C.2   265  GLY265      0.2639
     84  O         40.3170  -83.7430  -30.3730 O.2   265  GLY265     -0.2714
     85  N         39.0420  -83.0960  -32.1190 N.am  266  SER266     -0.1949
     86  CA        39.1060  -81.6600  -31.8310 C.3   266  SER266      0.1924
     87  C         40.4830  -81.0590  -32.0370 C.2   266  SER266      0.2314
     88  O         40.8220  -80.0260  -31.4630 O.2   266  SER266     -0.2863
     89  CB        38.5900  -81.3670  -30.4270 C.3   266  SER266      0.2116
     90  OG        37.3510  -80.6770  -30.5030 O.3   266  SER266     -0.2180
     91  N         44.1870  -85.3690  -28.9200 N.3   283  GLY283     -0.1210
     92  CA        43.0900  -84.4650  -29.1690 C.3   283  GLY283      0.1956
     93  C         43.3400  -83.1130  -28.5610 C.2   283  GLY283      0.2611
     94  O         44.1420  -82.9740  -27.6340 O.2   283  GLY283     -0.2717
     95  N         42.6350  -82.1170  -29.0800 N.am  284  HIS284     -0.1975
     96  CA        42.5910  -80.7970  -28.4710 C.3   284  HIS284      0.1656
     97  C         43.9060  -80.0050  -28.5920 C.2   284  HIS284      0.2291
     98  O         44.2010  -79.1340  -27.7700 O.2   284  HIS284     -0.2864
     99  CB        42.0980  -80.8930  -27.0130 C.3   284  HIS284      0.0771
    100  CG        40.6500  -81.2510  -26.8980 C.ar  284  HIS284      0.0820
    101  ND1       39.6370  -80.3240  -27.0500 N.ar  284  HIS284     -0.2267
    102  CD2       40.0430  -82.4400  -26.6630 C.ar  284  HIS284      0.1154
    103  CE1       38.4700  -80.9280  -26.9060 C.ar  284  HIS284      0.1986
    104  NE2       38.6880  -82.2140  -26.6800 N.ar  284  HIS284     -0.2212
@<TRIPOS>BOND
     1    69    68    1
     2    69    70    2
     3    67    68    1
     4    67    59   am
     5    68    71    1
     6    49    48    2
     7    58    57    1
     8    58    59    1
     9    58    61    1
    10    59    60    2
    11    48    47    1
    12    71    72    1
    13    72    73    1
    14    61    62    1
    15    47    46    1
    16    47    50    1
    17    76    77    1
    18    35    36    1
    19    79    78    2
    20    46    37   am
    21    38    37    2
    22    37    36    1
    23    73    75   am
    24    73    74    2
    25    85    86    1
    26    85    83   am
    27    36    39    1
    28    78    77    1
    29    78    81   am
    30    50    51    1
    31    77    80    1
    32    87    86    1
    33    87    88    2
    34    62    63   ar
    35    62    64   ar
    36    86    89    1
    37    82    81    1
    38    82    83    1
    39    53    51   ar
    40    53    55   ar
    41    83    84    2
    42     1     2    1
    43    63    65   ar
    44    51    52   ar
    45    64    66   ar
    46    39    40    1
    47    90    89    1
    48    55    56   ar
    49    52    54   ar
    50     5     2    1
    51     5     6    1
    52     2     3    1
    53    65    66   ar
    54    40    41    1
    55    56    54   ar
    56     7     6   ar
    57     7     9   ar
    58    92    91    1
    59    92    93    1
    60     6     8   ar
    61    95    93   am
    62    95    96    1
    63     3    12   am
    64     3     4    2
    65    97    96    1
    66    97    98    2
    67    27    26    1
    68    93    94    2
    69    12    13    1
    70     9    11   ar
    71    96    99    1
    72    41    42    1
    73     8    10   ar
    74    26    24   ar
    75    26    25   ar
    76    42    43    2
    77    13    14    1
    78    11    10   ar
    79    15    14    2
    80   101   103   ar
    81   101   100   ar
    82    99   100    1
    83    24    22   ar
    84   103   104   ar
    85   100   102   ar
    86    25    23   ar
    87    14    16   am
    88   104   102   ar
    89    43    45    1
    90    43    44    1
    91    22    21   ar
    92    23    21   ar
    93    16    17    1
    94    21    20    1
    95    17    20    1
    96    17    18    1
    97    18    19    2
    98    28    29    1
    99    33    32    1
   100    29    32    1
   101    29    30    1
   102    32    34    1
   103    30    31    2
