@<TRIPOS>MOLECULE
tmp/2iu8B02.pdb
 101 96 0 0 0
SMALL
GASTEIGER

@<TRIPOS>ATOM
      1  N         43.0760 -115.3120  -36.4490 N.3   190  PHE190     -0.1241
      2  CA        44.3520 -115.4910  -37.1520 C.3   190  PHE190      0.1605
      3  C         45.1320 -116.7010  -36.5850 C.2   190  PHE190      0.2264
      4  O         46.0590 -116.5430  -35.7910 O.2   190  PHE190     -0.2867
      5  CB        45.1920 -114.2040  -37.1110 C.3   190  PHE190      0.0534
      6  CG        46.2790 -114.1530  -38.1710 C.ar  190  PHE190     -0.0203
      7  CD1       45.9830 -113.7790  -39.4780 C.ar  190  PHE190     -0.0042
      8  CD2       47.5860 -114.5330  -37.8750 C.ar  190  PHE190     -0.0042
      9  CE1       46.9720 -113.7430  -40.4710 C.ar  190  PHE190     -0.0003
     10  CE2       48.5940 -114.5040  -38.8660 C.ar  190  PHE190     -0.0003
     11  CZ        48.2890 -114.1200  -40.1640 C.ar  190  PHE190     -0.0000
     12  N         37.0900 -110.6440  -34.5170 N.3   224  ASP224     -0.1239
     13  CA        37.3040 -111.9960  -34.9010 C.3   224  ASP224      0.1674
     14  C         36.6680 -112.9450  -33.9220 C.2   224  ASP224      0.2266
     15  O         36.4700 -112.6100  -32.7480 O.2   224  ASP224     -0.2867
     16  CB        38.7940 -112.2750  -34.9280 C.3   224  ASP224      0.1410
     17  CG        39.4690 -111.6930  -36.1410 C.2   224  ASP224      0.3668
     18  OD1       38.7650 -111.4620  -37.1490 O.co2 224  ASP224     -0.2456
     19  OD2       40.7060 -111.4670  -36.0860 O.co2 224  ASP224     -0.2456
     20  N         41.2300 -103.8030  -33.8370 N.3   244  GLN244     -0.1245
     21  CA        41.3690 -105.2510  -33.9960 C.3   244  GLN244      0.1566
     22  C         41.0190 -105.9290  -32.6850 C.2   244  GLN244      0.2260
     23  O         41.6730 -105.7240  -31.6800 O.2   244  GLN244     -0.2867
     24  CB        42.7840 -105.6450  -34.4660 C.3   244  GLN244      0.0367
     25  CG        43.1980 -107.1500  -34.2570 C.3   244  GLN244      0.0905
     26  CD        42.3830 -108.1570  -35.0650 C.2   244  GLN244      0.2608
     27  OE1       41.3750 -107.8050  -35.6710 O.2   244  GLN244     -0.2717
     28  NE2       42.8190 -109.4380  -35.0670 N.am  244  GLN244     -0.0878
     29  N         40.9130 -109.6770  -31.6180 N.3   246  ALA246     -0.1231
     30  CA        41.3120 -110.9870  -32.1010 C.3   246  ALA246      0.1694
     31  C         40.4180 -112.1230  -31.6130 C.2   246  ALA246      0.2592
     32  O         39.3940 -111.8980  -30.9720 O.2   246  ALA246     -0.2718
     33  CB        42.7340 -111.2530  -31.7150 C.3   246  ALA246      0.0304
     34  N         40.8280 -113.3530  -31.9220 N.am  247  HIS247     -0.1976
     35  CA        40.0850 -114.5570  -31.5670 C.3   247  HIS247      0.1656
     36  C         40.1860 -114.8220  -30.0790 C.2   247  HIS247      0.2291
     37  O         41.2820 -114.9110  -29.5250 O.2   247  HIS247     -0.2864
     38  CB        40.6370 -115.7480  -32.3450 C.3   247  HIS247      0.0771
     39  CG        42.1150 -115.9360  -32.1950 C.ar  247  HIS247      0.0820
     40  ND1       42.6830 -117.1500  -31.8860 N.ar  247  HIS247     -0.2267
     41  CD2       43.1430 -115.0570  -32.2900 C.ar  247  HIS247      0.1154
     42  CE1       43.9960 -117.0160  -31.8150 C.ar  247  HIS247      0.1986
     43  NE2       44.3000 -115.7530  -32.0510 N.ar  247  HIS247     -0.2212
     44  N         44.5590 -102.2970  -30.4960 N.3   262  GLY262     -0.1210
     45  CA        44.4280 -103.7140  -30.9370 C.3   262  GLY262      0.1956
     46  C         44.7400 -104.6870  -29.8070 C.2   262  GLY262      0.2612
     47  O         45.5110 -104.3600  -28.9090 O.2   262  GLY262     -0.2717
     48  N         44.1470 -105.8870  -29.8530 N.am  263  ILE263     -0.1965
     49  CA        44.2650 -106.8490  -28.7840 C.3   263  ILE263      0.1727
     50  C         44.4390 -108.2360  -29.4100 C.2   263  ILE263      0.2616
     51  O         43.6510 -108.6560  -30.2670 O.2   263  ILE263     -0.2715
     52  CB        43.0410 -106.8240  -27.8140 C.3   263  ILE263      0.0290
     53  CG1       42.5910 -105.3960  -27.4610 C.3   263  ILE263      0.0022
     54  CG2       43.3590 -107.5930  -26.5280 C.3   263  ILE263      0.0023
     55  CD1       41.2300 -105.3510  -26.7710 C.3   263  ILE263      0.0001
     56  N         45.4920 -108.9290  -28.9990 N.am  264  ALA264     -0.1963
     57  CA        45.8270 -110.2080  -29.6120 C.3   264  ALA264      0.1728
     58  C         45.0760 -111.3460  -28.9210 C.2   264  ALA264      0.2616
     59  O         44.4480 -111.1380  -27.8770 O.2   264  ALA264     -0.2715
     60  CB        47.3320 -110.4260  -29.6010 C.3   264  ALA264      0.0334
     61  N         45.1360 -112.5370  -29.5140 N.am  265  GLY265     -0.1955
     62  CA        44.3370 -113.6870  -29.0810 C.3   265  GLY265      0.1869
     63  C         44.3200 -114.0010  -27.5930 C.2   265  GLY265      0.2309
     64  O         45.2840 -113.7280  -26.8860 O.2   265  GLY265     -0.2863
     65  N         48.4490 -101.3400  -27.9810 N.3   280  GLY280     -0.1210
     66  CA        48.5330 -102.7370  -28.4390 C.3   280  GLY280      0.1956
     67  C         48.7070 -103.6730  -27.2600 C.2   280  GLY280      0.2612
     68  O         49.5190 -103.4030  -26.3770 O.2   280  GLY280     -0.2717
     69  N         47.9580 -104.7710  -27.2370 N.am  281  ILE281     -0.1965
     70  CA        47.9900 -105.6880  -26.1100 C.3   281  ILE281      0.1727
     71  C         48.2720 -107.1200  -26.5750 C.2   281  ILE281      0.2616
     72  O         47.5300 -107.6480  -27.4160 O.2   281  ILE281     -0.2715
     73  CB        46.6590 -105.6630  -25.3490 C.3   281  ILE281      0.0290
     74  CG1       46.3430 -104.2370  -24.8660 C.3   281  ILE281      0.0022
     75  CG2       46.6660 -106.6740  -24.2020 C.3   281  ILE281      0.0023
     76  CD1       44.9940 -104.1050  -24.2870 C.3   281  ILE281      0.0001
     77  N         49.3170 -107.7470  -26.0280 N.am  282  THR282     -0.1951
     78  CA        49.7140 -109.1060  -26.4610 C.3   282  THR282      0.1897
     79  C         48.6040 -110.0970  -26.1760 C.2   282  THR282      0.2313
     80  O         47.6120 -109.7610  -25.5120 O.2   282  THR282     -0.2863
     81  CB        50.9340 -109.6790  -25.7170 C.3   282  THR282      0.1794
     82  OG1       51.5940 -108.6660  -24.9620 O.3   282  THR282     -0.2208
     83  CG2       51.8960 -110.3290  -26.6930 C.3   282  THR282      0.0378
     84  N         52.3240 -100.3310  -25.4250 N.3   298  GLY298     -0.1210
     85  CA        52.6250 -101.7020  -25.8140 C.3   298  GLY298      0.1956
     86  C         52.6570 -102.5370  -24.5580 C.2   298  GLY298      0.2612
     87  O         53.6240 -102.4870  -23.8020 O.2   298  GLY298     -0.2717
     88  N         51.5830 -103.2820  -24.3260 N.am  299  VAL299     -0.1965
     89  CA        51.4500 -104.1090  -23.1350 C.3   299  VAL299      0.1727
     90  C         51.9600 -105.5080  -23.4500 C.2   299  VAL299      0.2616
     91  O         51.4380 -106.1690  -24.3510 O.2   299  VAL299     -0.2715
     92  CB        49.9710 -104.1930  -22.6590 C.3   299  VAL299      0.0290
     93  CG1       49.8720 -104.9650  -21.3590 C.3   299  VAL299      0.0023
     94  CG2       49.3900 -102.8150  -22.4530 C.3   299  VAL299      0.0023
     95  N         52.9670 -105.9510  -22.6980 N.am  300  THR300     -0.1951
     96  CA        53.6340 -107.2440  -22.9470 C.3   300  THR300      0.1897
     97  C         53.4040 -108.2690  -21.8380 C.2   300  THR300      0.2313
     98  O         53.6810 -109.4540  -22.0080 O.2   300  THR300     -0.2863
     99  CB        55.1380 -107.0650  -23.1020 C.3   300  THR300      0.1794
    100  OG1       55.6670 -106.5240  -21.8920 O.3   300  THR300     -0.2208
    101  CG2       55.4500 -106.1140  -24.2170 C.3   300  THR300      0.0378
@<TRIPOS>BOND
     1     9    11   ar
     2     9     7   ar
     3    11    10   ar
     4     7     6   ar
     5    10     8   ar
     6     6     8   ar
     7     6     5    1
     8     2     5    1
     9     2     3    1
    10     2     1    1
    11    18    17   ar
    12     3     4    2
    13    17    19   ar
    14    17    16    1
    15    27    26    2
    16    28    26   am
    17    26    25    1
    18    16    13    1
    19    13    12    1
    20    13    14    1
    21    24    25    1
    22    24    21    1
    23    21    20    1
    24    21    22    1
    25    14    15    2
    26    22    23    2
    27    38    39    1
    28    38    35    1
    29    41    39   ar
    30    41    43   ar
    31    39    40   ar
    32    30    33    1
    33    30    29    1
    34    30    31    1
    35    43    42   ar
    36    34    31   am
    37    34    35    1
    38    40    42   ar
    39    31    32    2
    40    35    36    1
    41    45    44    1
    42    45    46    1
    43    51    50    2
    44    36    37    2
    45    48    46   am
    46    48    49    1
    47    46    47    2
    48    57    60    1
    49    57    56    1
    50    57    58    1
    51    61    62    1
    52    61    58   am
    53    50    56   am
    54    50    49    1
    55    62    63    1
    56    58    59    2
    57    49    52    1
    58    66    65    1
    59    66    67    1
    60    52    53    1
    61    52    54    1
    62    63    64    2
    63    53    55    1
    64    72    71    2
    65    67    69   am
    66    67    68    2
    67    69    70    1
    68    83    81    1
    69    71    70    1
    70    71    77   am
    71    78    79    1
    72    78    77    1
    73    78    81    1
    74    79    80    2
    75    70    73    1
    76    85    84    1
    77    85    86    1
    78    81    82    1
    79    73    74    1
    80    73    75    1
    81    74    76    1
    82    86    88   am
    83    86    87    2
    84    91    90    2
    85    88    89    1
    86   101    99    1
    87    90    89    1
    88    90    95   am
    89    89    92    1
    90    99    96    1
    91    99   100    1
    92    96    95    1
    93    96    97    1
    94    92    94    1
    95    92    93    1
    96    98    97    2
