@<TRIPOS>MOLECULE
tmp/2iu8A00.pdb
 113 108 0 0 0
SMALL
GASTEIGER

@<TRIPOS>ATOM
      1  N         33.6330  -90.6590  -31.2770 N.3   190  PHE190     -0.1241
      2  CA        33.7840  -91.4830  -30.0730 C.3   190  PHE190      0.1605
      3  C         33.6430  -90.6530  -28.7910 C.2   190  PHE190      0.2264
      4  O         34.6130  -90.4700  -28.0510 O.2   190  PHE190     -0.2867
      5  CB        35.1270  -92.2140  -30.0960 C.3   190  PHE190      0.0534
      6  CG        35.1980  -93.3730  -29.1490 C.ar  190  PHE190     -0.0203
      7  CD1       34.3900  -94.4910  -29.3400 C.ar  190  PHE190     -0.0042
      8  CD2       36.0730  -93.3560  -28.0730 C.ar  190  PHE190     -0.0042
      9  CE1       34.4510  -95.5640  -28.4800 C.ar  190  PHE190     -0.0003
     10  CE2       36.1420  -94.4410  -27.1990 C.ar  190  PHE190     -0.0003
     11  CZ        35.3260  -95.5470  -27.4080 C.ar  190  PHE190     -0.0000
     12  N         35.1100  -89.3000  -38.6710 N.3   224  ASP224     -0.1239
     13  CA        34.0220  -89.0770  -37.7580 C.3   224  ASP224      0.1674
     14  C         33.4810  -87.6500  -37.8870 C.2   224  ASP224      0.2266
     15  O         34.2500  -86.6970  -38.0980 O.2   224  ASP224     -0.2867
     16  CB        34.4660  -89.3560  -36.3160 C.3   224  ASP224      0.1410
     17  CG        34.5320  -90.8620  -35.9930 C.2   224  ASP224      0.3668
     18  OD1       34.1810  -91.6770  -36.8670 O.co2 224  ASP224     -0.2456
     19  OD2       34.9290  -91.2330  -34.8610 O.co2 224  ASP224     -0.2456
     20  N         42.2970  -92.9800  -39.1800 N.3   244  GLN244     -0.1245
     21  CA        41.2720  -92.4880  -38.3100 C.3   244  GLN244      0.1566
     22  C         41.3380  -90.9520  -38.2490 C.2   244  GLN244      0.2260
     23  O         42.3790  -90.3790  -37.8700 O.2   244  GLN244     -0.2867
     24  CB        41.4440  -93.0810  -36.9240 C.3   244  GLN244      0.0367
     25  CG        40.6610  -92.4210  -35.8140 C.3   244  GLN244      0.0905
     26  CD        39.1190  -92.5380  -35.9550 C.2   244  GLN244      0.2608
     27  OE1       38.5910  -92.8630  -37.0120 O.2   244  GLN244     -0.2717
     28  NE2       38.4150  -92.2500  -34.8870 N.am  244  GLN244     -0.0878
     29  N         39.1830  -88.1000  -36.1860 N.3   246  ALA246     -0.1231
     30  CA        38.1750  -88.1270  -35.1580 C.3   246  ALA246      0.1694
     31  C         37.2230  -86.9450  -35.2780 C.2   246  ALA246      0.2592
     32  O         37.3090  -86.1510  -36.2130 O.2   246  ALA246     -0.2718
     33  CB        38.7690  -88.1960  -33.7720 C.3   246  ALA246      0.0304
     34  N         36.3510  -86.8240  -34.2990 N.am  247  HIS247     -0.1976
     35  CA        35.2680  -85.9070  -34.3990 C.3   247  HIS247      0.1656
     36  C         35.7980  -84.4800  -34.2590 C.2   247  HIS247      0.2291
     37  O         36.4600  -84.1510  -33.2770 O.2   247  HIS247     -0.2864
     38  CB        34.2610  -86.2350  -33.3200 C.3   247  HIS247      0.0771
     39  CG        34.7670  -86.0350  -31.9320 C.ar  247  HIS247      0.0820
     40  ND1       35.2970  -87.0590  -31.1790 N.ar  247  HIS247     -0.2267
     41  CD2       34.8160  -84.9290  -31.1510 C.ar  247  HIS247      0.1154
     42  CE1       35.6450  -86.5960  -29.9920 C.ar  247  HIS247      0.1986
     43  NE2       35.3560  -85.3040  -29.9460 N.ar  247  HIS247     -0.2212
     44  N         46.5250  -91.7260  -37.1130 N.3   262  GLY262     -0.1210
     45  CA        45.2270  -91.3550  -36.4960 C.3   262  GLY262      0.1956
     46  C         45.2890  -89.9600  -35.8520 C.2   262  GLY262      0.2612
     47  O         46.3080  -89.5610  -35.2880 O.2   262  GLY262     -0.2717
     48  N         44.1980  -89.1960  -35.9330 N.am  263  ILE263     -0.1965
     49  CA        44.1230  -87.9100  -35.2310 C.3   263  ILE263      0.1727
     50  C         42.8980  -87.9260  -34.3260 C.2   263  ILE263      0.2616
     51  O         41.7830  -88.2440  -34.7940 O.2   263  ILE263     -0.2715
     52  CB        44.0890  -86.7180  -36.2180 C.3   263  ILE263      0.0290
     53  CG1       45.3740  -86.6820  -37.0470 C.3   263  ILE263      0.0022
     54  CG2       43.8770  -85.3810  -35.4920 C.3   263  ILE263      0.0023
     55  CD1       45.2520  -87.2980  -38.4380 C.3   263  ILE263      0.0001
     56  N         43.1150  -87.6240  -33.0360 N.am  264  ALA264     -0.1963
     57  CA        42.0600  -87.6680  -32.0390 C.3   264  ALA264      0.1728
     58  C         41.2080  -86.3990  -32.1030 C.2   264  ALA264      0.2616
     59  O         41.5400  -85.4580  -32.8180 O.2   264  ALA264     -0.2715
     60  CB        42.6190  -87.8760  -30.6550 C.3   264  ALA264      0.0334
     61  N         40.1150  -86.3850  -31.3520 N.am  265  GLY265     -0.1955
     62  CA        39.0740  -85.4080  -31.5410 C.3   265  GLY265      0.1869
     63  C         39.5410  -84.0040  -31.2950 C.2   265  GLY265      0.2309
     64  O         40.3170  -83.7430  -30.3730 O.2   265  GLY265     -0.2863
     65  N         50.4040  -90.8670  -34.5310 N.3   280  GLY280     -0.1210
     66  CA        49.1790  -90.6100  -33.7670 C.3   280  GLY280      0.1956
     67  C         49.2340  -89.2140  -33.1680 C.2   280  GLY280      0.2612
     68  O         50.2540  -88.8260  -32.6400 O.2   280  GLY280     -0.2717
     69  N         48.1410  -88.4550  -33.2560 N.am  281  ILE281     -0.1965
     70  CA        48.1080  -87.0980  -32.6880 C.3   281  ILE281      0.1727
     71  C         46.9680  -87.0020  -31.6760 C.2   281  ILE281      0.2616
     72  O         45.8130  -87.2830  -32.0390 O.2   281  ILE281     -0.2715
     73  CB        48.0010  -86.0280  -33.8080 C.3   281  ILE281      0.0290
     74  CG1       49.1410  -86.2230  -34.8080 C.3   281  ILE281      0.0022
     75  CG2       48.0820  -84.6070  -33.2360 C.3   281  ILE281      0.0023
     76  CD1       48.9810  -85.5090  -36.1250 C.3   281  ILE281      0.0001
     77  N         47.2800  -86.6600  -30.4150 N.am  282  THR282     -0.1951
     78  CA        46.2410  -86.5240  -29.3840 C.3   282  THR282      0.1897
     79  C         45.2150  -85.4620  -29.7480 C.2   282  THR282      0.2313
     80  O         45.3520  -84.7590  -30.7410 O.2   282  THR282     -0.2863
     81  CB        46.7300  -86.2150  -27.9320 C.3   282  THR282      0.1794
     82  OG1       47.7980  -85.2500  -27.9330 O.3   282  THR282     -0.2208
     83  CG2       47.1330  -87.4830  -27.2060 C.3   282  THR282      0.0378
     84  N         54.2790  -90.0950  -32.0320 N.3   298  GLY298     -0.1210
     85  CA        53.1820  -89.9220  -31.0770 C.3   298  GLY298      0.1956
     86  C         53.1530  -88.4810  -30.6120 C.2   298  GLY298      0.2612
     87  O         53.9700  -88.0620  -29.8060 O.2   298  GLY298     -0.2717
     88  N         52.2200  -87.7020  -31.1250 N.am  299  VAL299     -0.1965
     89  CA        52.1770  -86.2950  -30.7590 C.3   299  VAL299      0.1727
     90  C         51.3010  -86.0690  -29.5320 C.2   299  VAL299      0.2616
     91  O         50.1120  -86.3990  -29.5260 O.2   299  VAL299     -0.2715
     92  CB        51.7670  -85.4110  -31.9300 C.3   299  VAL299      0.0290
     93  CG1       51.9390  -83.9390  -31.5630 C.3   299  VAL299      0.0023
     94  CG2       52.5880  -85.7390  -33.1590 C.3   299  VAL299      0.0023
     95  N         51.9130  -85.5040  -28.4920 N.am  300  THR300     -0.1951
     96  CA        51.2460  -85.2670  -27.2090 C.3   300  THR300      0.1897
     97  C         50.9620  -83.7830  -26.9180 C.2   300  THR300      0.2313
     98  O         50.1000  -83.4810  -26.0970 O.2   300  THR300     -0.2863
     99  CB        52.0910  -85.7880  -26.0560 C.3   300  THR300      0.1794
    100  OG1       53.3380  -85.0800  -26.0520 O.3   300  THR300     -0.2208
    101  CG2       52.3410  -87.2920  -26.2010 C.3   300  THR300      0.0378
    102  N         58.0000  -90.3980  -29.6050 N.3   312  ALA312     -0.1231
    103  CA        56.7810  -90.3840  -28.7990 C.3   312  ALA312      0.1679
    104  C         57.1830  -90.2410  -27.3310 C.2   312  ALA312      0.2434
    105  O         57.6840  -91.1820  -26.7450 O.2   312  ALA312     -0.2733
    106  CB        55.9420  -91.6550  -29.0230 C.3   312  ALA312      0.0304
    107  N         56.9800  -89.0510  -26.7390 N.am  313  PRO313     -0.2729
    108  CA        56.3160  -87.9220  -27.3790 C.3   313  PRO313      0.1401
    109  C         57.1710  -87.3230  -28.4850 C.2   313  PRO313      0.2269
    110  O         58.3920  -87.4470  -28.4550 O.2   313  PRO313     -0.2865
    111  CB        56.1070  -86.9230  -26.2200 C.3   313  PRO313      0.0296
    112  CG        56.3720  -87.7130  -24.9530 C.3   313  PRO313      0.0237
    113  CD        57.3970  -88.7250  -25.3650 C.3   313  PRO313      0.0939
@<TRIPOS>BOND
     1    20    21    1
     2    12    13    1
     3    55    53    1
     4    21    22    1
     5    21    24    1
     6    22    23    2
     7    15    14    2
     8    14    13    1
     9    13    16    1
    10    44    45    1
    11    53    52    1
    12    27    26    2
    13    24    25    1
    14    18    17   ar
    15    45    46    1
    16    16    17    1
    17    52    54    1
    18    52    49    1
    19    32    31    2
    20    29    30    1
    21    76    74    1
    22    17    19   ar
    23    26    25    1
    24    26    28   am
    25    48    46   am
    26    48    49    1
    27    46    47    2
    28    31    30    1
    29    31    34   am
    30    49    50    1
    31    30    33    1
    32    74    73    1
    33    51    50    2
    34    65    66    1
    35    35    34    1
    36    35    36    1
    37    35    38    1
    38    50    56   am
    39    36    37    2
    40    73    75    1
    41    73    70    1
    42    66    67    1
    43    38    39    1
    44    69    67   am
    45    69    70    1
    46    67    68    2
    47    94    92    1
    48    56    57    1
    49    59    58    2
    50    70    71    1
    51    58    57    1
    52    58    61   am
    53    72    71    2
    54    57    60    1
    55    84    85    1
    56    39    40   ar
    57    39    41   ar
    58    92    93    1
    59    92    89    1
    60    71    77   am
    61    62    61    1
    62    62    63    1
    63    63    64    2
    64     1     2    1
    65    40    42   ar
    66    41    43   ar
    67    88    89    1
    68    88    86   am
    69    85    86    1
    70    89    90    1
    71    80    79    2
    72    86    87    2
    73    77    78    1
    74     5     2    1
    75     5     6    1
    76     2     3    1
    77    42    43   ar
    78    79    78    1
    79   102   103    1
    80    90    91    2
    81    90    95   am
    82    78    81    1
    83     7     6   ar
    84     7     9   ar
    85     6     8   ar
    86   106   103    1
    87   103   104    1
    88     3     4    2
    89    95    96    1
    90   109   110    2
    91   109   108    1
    92     9    11   ar
    93     8    10   ar
    94    82    81    1
    95    81    83    1
    96    11    10   ar
    97   108   107    1
    98   108   111    1
    99   104   105    2
   100   104   107   am
   101    96    97    1
   102    96    99    1
   103    97    98    2
   104   107   113    1
   105   111   112    1
   106   101    99    1
   107    99   100    1
   108   113   112    1
