@<TRIPOS>MOLECULE
tmp/2iu8A02.pdb
 72 68 0 0 0
SMALL
GASTEIGER

@<TRIPOS>ATOM
      1  N         45.5380  -91.3650  -46.8250 N.3   240  ASP240     -0.1225
      2  CA        45.8840  -92.7040  -47.3220 C.3   240  ASP240      0.1805
      3  C         44.9370  -93.7360  -46.7020 C.2   240  ASP240      0.2597
      4  O         43.9320  -93.3660  -46.1320 O.2   240  ASP240     -0.2718
      5  CB        47.3400  -92.9870  -46.9550 C.3   240  ASP240      0.1424
      6  CG        47.9540  -94.1370  -47.7180 C.2   240  ASP240      0.3668
      7  OD1       47.2550  -94.9240  -48.4040 O.co2 240  ASP240     -0.2456
      8  OD2       49.1940  -94.2670  -47.5960 O.co2 240  ASP240     -0.2456
      9  N         45.2470  -95.0260  -46.8080 N.am  241  ASN241     -0.1974
     10  CA        44.3230  -96.0820  -46.3490 C.3   241  ASN241      0.1688
     11  C         44.2760  -96.1640  -44.8640 C.2   241  ASN241      0.2292
     12  O         45.2770  -95.9170  -44.2100 O.2   241  ASN241     -0.2864
     13  CB        44.7840  -97.4240  -46.8810 C.3   241  ASN241      0.1181
     14  CG        44.8440  -97.4440  -48.3680 C.2   241  ASN241      0.2629
     15  OD1       44.4020  -96.4920  -49.0320 O.2   241  ASN241     -0.2716
     16  ND2       45.3910  -98.5130  -48.9150 N.am  241  ASN241     -0.0877
     17  N         49.4470  -90.2650  -43.9880 N.3   258  VAL258     -0.1231
     18  CA        49.8890  -91.5190  -44.5640 C.3   258  VAL258      0.1692
     19  C         49.1610  -92.6500  -43.8630 C.2   258  VAL258      0.2592
     20  O         48.6430  -92.4920  -42.7730 O.2   258  VAL258     -0.2718
     21  CB        51.4380  -91.6120  -44.5040 C.3   258  VAL258      0.0266
     22  CG1       51.9370  -92.9230  -45.0330 C.3   258  VAL258      0.0020
     23  CG2       52.0540  -90.4850  -45.3130 C.3   258  VAL258      0.0020
     24  N         49.1120  -93.7960  -44.5030 N.am  259  ALA259     -0.1966
     25  CA        48.3360  -94.9360  -44.0210 C.3   259  ALA259      0.1728
     26  C         48.4600  -95.2020  -42.5140 C.2   259  ALA259      0.2616
     27  O         49.5450  -95.1600  -41.9290 O.2   259  ALA259     -0.2715
     28  CB        48.7160  -96.1540  -44.8160 C.3   259  ALA259      0.0334
     29  N         47.3190  -95.4620  -41.8850 N.am  260  GLN260     -0.1977
     30  CA        47.2560  -95.9050  -40.5020 C.3   260  GLN260      0.1601
     31  C         47.5860  -94.8610  -39.4560 C.2   260  GLN260      0.2287
     32  O         47.4730  -95.1300  -38.2850 O.2   260  GLN260     -0.2864
     33  CB        48.1030  -97.1840  -40.2750 C.3   260  GLN260      0.0394
     34  CG        47.6950  -98.3980  -41.1180 C.3   260  GLN260      0.0908
     35  CD        48.6490  -99.5770  -40.9560 C.2   260  GLN260      0.2608
     36  OE1       49.8590  -99.3930  -40.8710 O.2   260  GLN260     -0.2717
     37  NE2       48.1080 -100.7900  -40.9260 N.am  260  GLN260     -0.0878
     38  N         53.4110  -92.6010  -41.6360 N.3   277  GLY277     -0.1210
     39  CA        52.6060  -93.8090  -41.4270 C.3   277  GLY277      0.1956
     40  C         52.4860  -94.1180  -39.9560 C.2   277  GLY277      0.2611
     41  O         53.4230  -93.9020  -39.2150 O.2   277  GLY277     -0.2717
     42  N         51.3050  -94.5610  -39.5260 N.am  278  GLN278     -0.1979
     43  CA        51.1120  -95.0360  -38.1510 C.3   278  GLN278      0.1601
     44  C         51.3560  -93.9870  -37.0480 C.2   278  GLN278      0.2287
     45  O         51.2580  -94.3210  -35.8680 O.2   278  GLN278     -0.2864
     46  CB        51.9860  -96.3000  -37.8750 C.3   278  GLN278      0.0394
     47  CG        51.6530  -97.5600  -38.6910 C.3   278  GLN278      0.0908
     48  CD        52.6760  -98.6800  -38.5050 C.2   278  GLN278      0.2608
     49  OE1       53.7250  -98.4870  -37.8710 O.2   278  GLN278     -0.2717
     50  NE2       52.3680  -99.8650  -39.0440 N.am  278  GLN278     -0.0878
     51  N         57.4920  -87.9230  -38.6810 N.3   294  MET294     -0.1230
     52  CA        58.0050  -89.1960  -39.1740 C.3   294  MET294      0.1702
     53  C         56.9840  -90.2950  -38.8730 C.2   294  MET294      0.2592
     54  O         56.1410  -90.1450  -37.9910 O.2   294  MET294     -0.2718
     55  CB        59.3540  -89.5370  -38.5150 C.3   294  MET294      0.0401
     56  CG        60.5180  -88.5380  -38.7430 C.3   294  MET294      0.0596
     57  SD        60.9410  -88.1610  -40.4820 S.3   294  MET294     -0.1393
     58  CE        61.1790  -89.7980  -41.2200 C.3   294  MET294      0.0692
     59  N         57.0290  -91.3930  -39.6040 N.am  295  ALA295     -0.1966
     60  CA        56.1810  -92.5400  -39.2580 C.3   295  ALA295      0.1728
     61  C         56.2880  -92.9380  -37.7730 C.2   295  ALA295      0.2616
     62  O         57.3500  -92.8000  -37.1400 O.2   295  ALA295     -0.2715
     63  CB        56.5040  -93.7140  -40.1550 C.3   295  ALA295      0.0334
     64  N         55.1690  -93.4000  -37.2160 N.am  296  GLN296     -0.1977
     65  CA        55.1070  -93.9430  -35.8480 C.3   296  GLN296      0.1601
     66  C         55.3250  -92.8940  -34.7540 C.2   296  GLN296      0.2287
     67  O         55.5340  -93.2310  -33.5800 O.2   296  GLN296     -0.2864
     68  CB        56.0750  -95.1310  -35.6810 C.3   296  GLN296      0.0394
     69  CG        55.6280  -96.4150  -36.3780 C.3   296  GLN296      0.0908
     70  CD        56.5290  -97.5980  -36.0840 C.2   296  GLN296      0.2608
     71  OE1       57.6310  -97.4400  -35.5490 O.2   296  GLN296     -0.2717
     72  NE2       56.0660  -98.7980  -36.4360 N.am  296  GLN296     -0.0878
@<TRIPOS>BOND
     1    15    14    2
     2    16    14   am
     3     7     6   ar
     4    14    13    1
     5     6     8   ar
     6     6     5    1
     7     2     5    1
     8     2     1    1
     9     2     3    1
    10    13    10    1
    11     9     3   am
    12     9    10    1
    13     3     4    2
    14    10    11    1
    15    23    21    1
    16    22    21    1
    17    11    12    2
    18    28    25    1
    19    18    21    1
    20    18    17    1
    21    18    19    1
    22    24    25    1
    23    24    19   am
    24    25    26    1
    25    19    20    2
    26    26    27    2
    27    26    29   am
    28    29    30    1
    29    38    39    1
    30    39    40    1
    31    58    57    1
    32    34    35    1
    33    34    33    1
    34    35    37   am
    35    35    36    2
    36    30    33    1
    37    30    31    1
    38    57    56    1
    39    63    60    1
    40    40    42   am
    41    40    41    2
    42    59    60    1
    43    59    53   am
    44    42    43    1
    45    31    32    2
    46    60    61    1
    47    52    53    1
    48    52    51    1
    49    52    55    1
    50    50    48   am
    51    53    54    2
    52    56    55    1
    53    47    48    1
    54    47    46    1
    55    48    49    2
    56    43    46    1
    57    43    44    1
    58    61    64   am
    59    61    62    2
    60    64    65    1
    61    44    45    2
    62    72    70   am
    63    69    70    1
    64    69    68    1
    65    70    71    2
    66    65    68    1
    67    65    66    1
    68    66    67    2
