@<TRIPOS>MOLECULE
tmp/2iu9B01.pdb
 97 95 0 0 0
SMALL
GASTEIGER

@<TRIPOS>ATOM
      1  N         31.3640  -73.9580  -28.6530 N.3    32  GLU32      -0.1231
      2  CA        32.2890  -74.3740  -27.6050 C.3    32  GLU32       0.1699
      3  C         32.6670  -73.1860  -26.7050 C.2    32  GLU32       0.2592
      4  O         32.6410  -72.0350  -27.1430 O.2    32  GLU32      -0.2718
      5  CB        33.5280  -75.0470  -28.2090 C.3    32  GLU32       0.0402
      6  CG        34.3550  -74.1600  -29.1280 C.3    32  GLU32       0.1161
      7  CD        35.5830  -74.8620  -29.6630 C.2    32  GLU32       0.3649
      8  OE1       36.6520  -74.2160  -29.7480 O.co2  32  GLU32      -0.2457
      9  OE2       35.4770  -76.0620  -29.9990 O.co2  32  GLU32      -0.2457
     10  N         33.0180  -73.4800  -25.4540 N.am   33  ILE33      -0.1966
     11  CA        33.2630  -72.4470  -24.4380 C.3    33  ILE33       0.1727
     12  C         34.3850  -71.4410  -24.7660 C.2    33  ILE33       0.2616
     13  O         34.3190  -70.2890  -24.3400 O.2    33  ILE33      -0.2715
     14  CB        33.4350  -73.0710  -23.0090 C.3    33  ILE33       0.0290
     15  CG1       33.3050  -71.9950  -21.9230 C.3    33  ILE33       0.0022
     16  CG2       34.7420  -73.8760  -22.9000 C.3    33  ILE33       0.0023
     17  CD1       33.0700  -72.5320  -20.5310 C.3    33  ILE33       0.0001
     18  N         35.3920  -71.8590  -25.5280 N.am   34  GLU34      -0.1977
     19  CA        36.4850  -70.9480  -25.8960 C.3    34  GLU34       0.1602
     20  C         36.0300  -69.8660  -26.8820 C.2    34  GLU34       0.2287
     21  O         36.5120  -68.7300  -26.8360 O.2    34  GLU34      -0.2864
     22  CB        37.6610  -71.7170  -26.5160 C.3    34  GLU34       0.0415
     23  CG        38.3290  -72.7460  -25.6080 C.3    34  GLU34       0.1163
     24  CD        37.8030  -74.1610  -25.8030 C.2    34  GLU34       0.3649
     25  OE1       36.5670  -74.3660  -25.7740 O.co2  34  GLU34      -0.2457
     26  OE2       38.6390  -75.0730  -25.9750 O.co2  34  GLU34      -0.2457
     27  N         26.5960  -72.2960  -24.5710 N.3    42  THR42      -0.1203
     28  CA        27.7570  -73.1580  -24.3520 C.3    42  THR42       0.1994
     29  C         27.6430  -73.8440  -22.9980 C.2    42  THR42       0.2618
     30  O         26.7440  -73.5310  -22.2160 O.2    42  THR42      -0.2717
     31  CB        29.0910  -72.3760  -24.4610 C.3    42  THR42       0.1784
     32  OG1       30.1830  -73.3040  -24.5060 O.3    42  THR42      -0.2211
     33  CG2       29.2770  -71.4120  -23.2900 C.3    42  THR42       0.0376
     34  N         28.5440  -74.7780  -22.7190 N.am   43  PHE43      -0.1961
     35  CA        28.5030  -75.4860  -21.4460 C.3    43  PHE43       0.1771
     36  C         29.8610  -75.5790  -20.7820 C.2    43  PHE43       0.2619
     37  O         30.8890  -75.5990  -21.4540 O.2    43  PHE43      -0.2715
     38  CB        27.8890  -76.8810  -21.6120 C.3    43  PHE43       0.0574
     39  CG        28.7910  -77.8780  -22.2880 C.ar   43  PHE43      -0.0200
     40  CD1       29.3760  -78.9030  -21.5600 C.ar   43  PHE43      -0.0042
     41  CD2       29.0420  -77.8030  -23.6560 C.ar   43  PHE43      -0.0042
     42  CE1       30.2090  -79.8360  -22.1760 C.ar   43  PHE43      -0.0003
     43  CE2       29.8670  -78.7290  -24.2840 C.ar   43  PHE43      -0.0003
     44  CZ        30.4550  -79.7500  -23.5410 C.ar   43  PHE43      -0.0000
     45  N         29.8480  -75.6180  -19.4550 N.am   44  LEU44      -0.1963
     46  CA        31.0410  -75.9090  -18.6840 C.3    44  LEU44       0.1728
     47  C         30.8310  -77.2030  -17.9060 C.2    44  LEU44       0.2616
     48  O         30.0590  -77.2560  -16.9470 O.2    44  LEU44      -0.2715
     49  CB        31.4070  -74.7470  -17.7540 C.3    44  LEU44       0.0311
     50  CG        32.5790  -74.9610  -16.7870 C.3    44  LEU44       0.0022
     51  CD1       33.8980  -75.1320  -17.5230 C.3    44  LEU44       0.0001
     52  CD2       32.6580  -73.8130  -15.8060 C.3    44  LEU44       0.0001
     53  N         31.5220  -78.2460  -18.3470 N.am   45  ASP45      -0.1957
     54  CA        31.3960  -79.5720  -17.7670 C.3    45  ASP45       0.1840
     55  C         32.7510  -80.0290  -17.2500 C.2    45  ASP45       0.2622
     56  O         32.8420  -80.6930  -16.2220 O.2    45  ASP45      -0.2715
     57  CB        30.8660  -80.5490  -18.8210 C.3    45  ASP45       0.1450
     58  CG        30.8110  -81.9790  -18.3240 C.2    45  ASP45       0.3671
     59  OD1       29.8840  -82.3150  -17.5540 O.co2  45  ASP45      -0.2456
     60  OD2       31.6990  -82.7660  -18.7170 O.co2  45  ASP45      -0.2456
     61  N         33.7950  -79.6490  -17.9770 N.am   46  ASN46      -0.1972
     62  CA        35.1690  -80.0270  -17.6730 C.3    46  ASN46       0.1688
     63  C         35.9040  -78.8860  -16.9600 C.2    46  ASN46       0.2292
     64  O         35.8550  -77.7390  -17.4010 O.2    46  ASN46      -0.2864
     65  CB        35.8760  -80.3900  -18.9800 C.3    46  ASN46       0.1181
     66  CG        37.0560  -81.3010  -18.7760 C.2    46  ASN46       0.2629
     67  OD1       38.0550  -80.9260  -18.1610 O.2    46  ASN46      -0.2716
     68  ND2       36.9570  -82.5080  -19.3110 N.am   46  ASN46      -0.0877
     69  N         39.0000  -78.2110  -16.7900 N.3    48  LYS48      -0.1231
     70  CA        40.0820  -77.6650  -17.6150 C.3    48  LYS48       0.1693
     71  C         39.5960  -76.4950  -18.4740 C.2    48  LYS48       0.2592
     72  O         40.4030  -75.7720  -19.0600 O.2    48  LYS48      -0.2718
     73  CB        40.7020  -78.7590  -18.4990 C.3    48  LYS48       0.0285
     74  CG        41.7520  -79.6330  -17.8020 C.3    48  LYS48       0.0035
     75  CD        43.1580  -79.0190  -17.8800 C.3    48  LYS48       0.0206
     76  CE        44.1560  -79.7270  -16.9610 C.3    48  LYS48       0.1093
     77  NZ        44.4010  -81.1450  -17.3460 N.3    48  LYS48      -0.1314
     78  N         38.2750  -76.3130  -18.5260 N.am   49  TYR49      -0.1976
     79  CA        37.6350  -75.2840  -19.3490 C.3    49  TYR49       0.1639
     80  C         37.1210  -74.1140  -18.5140 C.2    49  TYR49       0.2290
     81  O         36.6280  -73.1210  -19.0560 O.2    49  TYR49      -0.2864
     82  CB        36.5020  -75.9040  -20.1790 C.3    49  TYR49       0.0560
     83  CG        37.0080  -76.8380  -21.2540 C.ar   49  TYR49      -0.0198
     84  CD1       37.6020  -78.0570  -20.9230 C.ar   49  TYR49      -0.0009
     85  CD2       36.9110  -76.5000  -22.6000 C.ar   49  TYR49      -0.0009
     86  CE1       38.0830  -78.9110  -21.8990 C.ar   49  TYR49       0.0417
     87  CE2       37.3860  -77.3510  -23.5860 C.ar   49  TYR49       0.0417
     88  CZ        37.9700  -78.5540  -23.2260 C.ar   49  TYR49       0.1957
     89  OH        38.4510  -79.3980  -24.1960 O.3    49  TYR49      -0.2866
     90  N         36.5180  -98.9630  -22.2470 N.3   256  MET256     -0.1245
     91  CA        36.6860  -98.1530  -23.4340 C.3   256  MET256      0.1570
     92  C         37.9760  -98.4690  -24.1540 C.2   256  MET256      0.2261
     93  O         39.0510  -98.5030  -23.5430 O.2   256  MET256     -0.2867
     94  CB        36.6230  -96.6850  -23.0760 C.3   256  MET256      0.0387
     95  CG        35.2610  -96.1060  -23.3200 C.3   256  MET256      0.0595
     96  SD        34.9750  -94.5680  -22.4410 S.3   256  MET256     -0.1393
     97  CE        36.5290  -93.6740  -22.6860 C.3   256  MET256      0.0692
@<TRIPOS>BOND
     1     9     7   ar
     2     8     7   ar
     3     7     6    1
     4     6     5    1
     5     1     2    1
     6     5     2    1
     7     2     3    1
     8     4     3    2
     9    20    21    2
    10    20    19    1
    11     3    10   am
    12    22    19    1
    13    22    23    1
    14    26    24   ar
    15    19    18    1
    16    24    25   ar
    17    24    23    1
    18    18    12   am
    19    10    11    1
    20    12    11    1
    21    12    13    2
    22    27    28    1
    23    32    31    1
    24    31    28    1
    25    31    33    1
    26    11    14    1
    27    28    29    1
    28    43    41   ar
    29    43    44   ar
    30    89    88    1
    31    92    93    2
    32    92    91    1
    33    41    39   ar
    34    87    88   ar
    35    87    85   ar
    36    44    42   ar
    37    91    94    1
    38    91    90    1
    39    95    94    1
    40    95    96    1
    41    88    86   ar
    42    14    16    1
    43    14    15    1
    44    29    34   am
    45    29    30    2
    46    34    35    1
    47    97    96    1
    48    85    83   ar
    49    39    38    1
    50    39    40   ar
    51    42    40   ar
    52    15    17    1
    53    86    84   ar
    54    38    35    1
    55    37    36    2
    56    35    36    1
    57    83    84   ar
    58    83    82    1
    59    36    45   am
    60    82    79    1
    61    45    46    1
    62    79    78    1
    63    79    80    1
    64    68    66   am
    65    72    71    2
    66    81    80    2
    67    65    66    1
    68    65    62    1
    69    57    58    1
    70    57    54    1
    71    66    67    2
    72    60    58   ar
    73    46    47    1
    74    46    49    1
    75    78    71   am
    76    73    74    1
    77    73    70    1
    78    71    70    1
    79    53    47   am
    80    53    54    1
    81    58    59   ar
    82    61    62    1
    83    61    55   am
    84    47    48    2
    85    75    74    1
    86    75    76    1
    87    54    55    1
    88    49    50    1
    89    62    63    1
    90    70    69    1
    91    51    50    1
    92    64    63    2
    93    77    76    1
    94    55    56    2
    95    50    52    1
