@<TRIPOS>MOLECULE
tmp/2iuhA00.pdb
 204 194 0 0 0
SMALL
GASTEIGER

@<TRIPOS>ATOM
      1  N         14.3250   19.7790   27.3200 N.3    16  ARG16      -0.1245
      2  CA        15.6330   19.2000   27.0240 C.3    16  ARG16       0.1563
      3  C         16.1480   18.3810   28.2170 C.2    16  ARG16       0.2260
      4  O         16.7820   17.3330   28.0410 O.2    16  ARG16      -0.2867
      5  CB        16.6260   20.3220   26.6780 C.3    16  ARG16       0.0307
      6  CG        18.0000   19.8570   26.2030 C.3    16  ARG16       0.0489
      7  CD        18.7230   20.9540   25.4260 C.3    16  ARG16       0.2205
      8  NE        18.9790   22.1440   26.2340 N.pl3  16  ARG16      -0.0865
      9  CZ        18.7770   23.3970   25.8250 C.cat  16  ARG16       0.5346
     10  NH1       19.0700   24.4070   26.6300 N.pl3  16  ARG16       0.1354
     11  NH2       18.2730   23.6490   24.6220 N.pl3  16  ARG16       0.1354
     12  N         14.4280   14.9140   28.2570 N.3    19  VAL19      -0.1231
     13  CA        15.0220   14.0460   27.2460 C.3    19  VAL19       0.1692
     14  C         16.3640   13.4560   27.6990 C.2    19  VAL19       0.2592
     15  O         16.5830   12.2460   27.5760 O.2    19  VAL19      -0.2718
     16  CB        15.1910   14.7870   25.9030 C.3    19  VAL19       0.0266
     17  CG1       15.8900   13.8940   24.8910 C.3    19  VAL19       0.0020
     18  CG2       13.8230   15.2020   25.3720 C.3    19  VAL19       0.0020
     19  N         17.2210   14.2860   28.2960 N.am   20  ASN20      -0.1974
     20  CA        18.4610   13.8050   28.9250 C.3    20  ASN20       0.1688
     21  C         18.2300   12.5550   29.7730 C.2    20  ASN20       0.2292
     22  O         18.9240   11.5510   29.6270 O.2    20  ASN20      -0.2864
     23  CB        19.0600   14.8840   29.8240 C.3    20  ASN20       0.1181
     24  CG        19.9350   15.8530   29.0710 C.2    20  ASN20       0.2629
     25  OD1       20.9100   15.4590   28.4340 O.2    20  ASN20      -0.2716
     26  ND2       19.6800   17.1370   29.2580 N.am   20  ASN20      -0.0877
     27  N         10.7760   15.8190   20.1590 N.3    34  ARG34      -0.1245
     28  CA        10.0130   16.7360   20.9930 C.3    34  ARG34       0.1563
     29  C          9.8720   18.0930   20.3000 C.2    34  ARG34       0.2260
     30  O         10.4990   18.3350   19.2630 O.2    34  ARG34      -0.2867
     31  CB        10.7120   16.9160   22.3380 C.3    34  ARG34       0.0307
     32  CG        12.0690   17.5790   22.2330 C.3    34  ARG34       0.0489
     33  CD        12.5240   18.1230   23.5740 C.3    34  ARG34       0.2205
     34  NE        13.9340   18.4990   23.5310 N.pl3  34  ARG34      -0.0865
     35  CZ        14.3900   19.6360   23.0160 C.cat  34  ARG34       0.5346
     36  NH1       15.6910   19.8700   22.9860 N.pl3  34  ARG34       0.1354
     37  NH2       13.5460   20.5350   22.5300 N.pl3  34  ARG34       0.1354
     38  N         10.5690   22.0250   19.7350 N.3    36  ALA36      -0.1231
     39  CA        11.7670   22.8410   19.9170 C.3    36  ALA36       0.1694
     40  C         11.6650   23.6910   21.1930 C.2    36  ALA36       0.2593
     41  O         10.5850   24.1480   21.5510 O.2    36  ALA36      -0.2718
     42  CB        11.9770   23.7420   18.6980 C.3    36  ALA36       0.0304
     43  N         12.7720   23.8210   21.9180 N.am   37  SER37      -0.1938
     44  CA        12.8550   24.7450   23.0550 C.3    37  SER37       0.2055
     45  C         12.2780   26.1180   22.7230 C.2    37  SER37       0.2643
     46  O         11.4860   26.6620   23.4900 O.2    37  SER37      -0.2714
     47  CB        14.3100   24.9170   23.5050 C.3    37  SER37       0.2130
     48  OG        14.8190   23.7110   24.0530 O.3    37  SER37      -0.2179
     49  N         12.7600   26.7120   21.6330 N.am   38  THR38      -0.1950
     50  CA        12.2420   27.9940   21.1550 C.3    38  THR38       0.1897
     51  C         11.5500   27.8460   19.7970 C.2    38  THR38       0.2313
     52  O         11.5560   26.7680   19.2050 O.2    38  THR38      -0.2863
     53  CB        13.3590   29.0630   21.0300 C.3    38  THR38       0.1794
     54  OG1       14.3500   28.6300   20.0870 O.3    38  THR38      -0.2208
     55  CG2       14.0170   29.3140   22.3800 C.3    38  THR38       0.0378
     56  N         12.6020   19.0990   17.6170 N.3    45  THR45      -0.1218
     57  CA        13.9760   18.6810   17.8490 C.3    45  THR45       0.1862
     58  C         14.0180   17.1700   17.9950 C.2    45  THR45       0.2287
     59  O         13.3590   16.6040   18.8790 O.2    45  THR45      -0.2866
     60  CB        14.5420   19.3270   19.1150 C.3    45  THR45       0.1770
     61  OG1       14.4710   20.7520   18.9790 O.3    45  THR45      -0.2211
     62  CG2       16.0010   18.9070   19.3500 C.3    45  THR45       0.0375
     63  N         16.1740   14.1240   19.0120 N.3    47  THR47      -0.1218
     64  CA        17.3440   13.8200   19.8240 C.3    47  THR47       0.1862
     65  C         17.6760   12.3360   19.7060 C.2    47  THR47       0.2287
     66  O         16.8020   11.4770   19.8690 O.2    47  THR47      -0.2866
     67  CB        17.1140   14.1640   21.3160 C.3    47  THR47       0.1770
     68  OG1       16.5470   15.4740   21.4290 O.3    47  THR47      -0.2211
     69  CG2       18.4320   14.1400   22.0690 C.3    47  THR47       0.0375
     70  N         20.7520    9.1390   20.3580 N.3    49  ARG49      -0.1245
     71  CA        21.8950    8.7240   21.1450 C.3    49  ARG49       0.1563
     72  C         23.0270    8.2470   20.2290 C.2    49  ARG49       0.2260
     73  O         22.8260    7.3890   19.3630 O.2    49  ARG49      -0.2867
     74  CB        21.4670    7.6060   22.0940 C.3    49  ARG49       0.0307
     75  CG        22.4650    7.3010   23.1860 C.3    49  ARG49       0.0489
     76  CD        22.5340    8.4060   24.2250 C.3    49  ARG49       0.2205
     77  NE        23.1370    7.9100   25.4600 N.pl3  49  ARG49      -0.0865
     78  CZ        23.4000    8.6550   26.5330 C.cat  49  ARG49       0.5346
     79  NH1       23.9650    8.0940   27.5990 N.pl3  49  ARG49       0.1354
     80  NH2       23.0800    9.9410   26.5610 N.pl3  49  ARG49       0.1354
     81  N         27.3450    7.4720   23.4940 N.3    52  GLY52      -0.1210
     82  CA        27.0730    7.8350   24.8750 C.3    52  GLY52       0.1956
     83  C         26.6900    9.2900   25.0990 C.2    52  GLY52       0.2612
     84  O         26.6020    9.7440   26.2450 O.2    52  GLY52      -0.2717
     85  N         26.4780   10.0300   24.0130 N.am   53  ASN53      -0.1960
     86  CA        26.0330   11.4190   24.0830 C.3    53  ASN53       0.1819
     87  C         24.7480   11.6410   23.2920 C.2    53  ASN53       0.2621
     88  O         24.3560   10.8080   22.4740 O.2    53  ASN53      -0.2715
     89  CB        27.1090   12.3510   23.5390 C.3    53  ASN53       0.1195
     90  CG        28.2910   12.4730   24.4620 C.2    53  ASN53       0.2630
     91  OD1       28.2140   13.1220   25.5090 O.2    53  ASN53      -0.2716
     92  ND2       29.3880   11.8290   24.0990 N.am   53  ASN53      -0.0877
     93  N         24.1480   12.8120   23.4740 N.am   54  ASN54      -0.1958
     94  CA        22.9010   13.1370   22.7970 C.3    54  ASN54       0.1819
     95  C         23.1370   14.1350   21.6630 C.2    54  ASN54       0.2621
     96  O         23.7030   15.2080   21.8770 O.2    54  ASN54      -0.2715
     97  CB        21.8930   13.7150   23.7940 C.3    54  ASN54       0.1195
     98  CG        21.6300   12.7900   24.9730 C.2    54  ASN54       0.2630
     99  OD1       21.6650   11.5680   24.8430 O.2    54  ASN54      -0.2716
    100  ND2       21.3040   13.3710   26.1130 N.am   54  ASN54      -0.0877
    101  N         22.6480   13.7990   20.4730 N.am   55  LYS55      -0.1963
    102  CA        22.7410   14.6730   19.3020 C.3    55  LYS55       0.1728
    103  C         21.3780   15.2630   18.9650 C.2    55  LYS55       0.2616
    104  O         20.4000   14.5330   18.7600 O.2    55  LYS55      -0.2715
    105  CB        23.2810   13.8970   18.1000 C.3    55  LYS55       0.0311
    106  CG        24.5410   13.0960   18.4110 C.3    55  LYS55       0.0038
    107  CD        25.6840   14.0050   18.8490 C.3    55  LYS55       0.0206
    108  CE        26.8410   13.2000   19.4180 C.3    55  LYS55       0.1093
    109  NZ        28.1070   13.9980   19.4870 N.3    55  LYS55      -0.1314
    110  N         21.2940   16.5860   19.0440 N.am   56  LEU56      -0.1963
    111  CA        20.0440   17.2990   18.8190 C.3    56  LEU56       0.1728
    112  C         19.9870   17.8640   17.4010 C.2    56  LEU56       0.2616
    113  O         20.9170   18.5210   16.9440 O.2    56  LEU56      -0.2715
    114  CB        19.8920   18.4280   19.8400 C.3    56  LEU56       0.0311
    115  CG        19.6090   18.0590   21.3040 C.3    56  LEU56       0.0022
    116  CD1       20.7220   17.2110   21.8840 C.3    56  LEU56       0.0001
    117  CD2       19.4670   19.3350   22.1000 C.3    56  LEU56       0.0001
    118  N         18.8710   17.6200   16.7280 N.am   57  ILE57      -0.1963
    119  CA        18.7230   17.9120   15.3050 C.3    57  ILE57       0.1727
    120  C         17.3840   18.6260   15.0660 C.2    57  ILE57       0.2616
    121  O         16.3160   18.0640   15.3270 O.2    57  ILE57      -0.2715
    122  CB        18.7680   16.5880   14.4870 C.3    57  ILE57       0.0290
    123  CG1       20.1640   15.9700   14.5840 C.3    57  ILE57       0.0022
    124  CG2       18.3580   16.8230   13.0270 C.3    57  ILE57       0.0023
    125  CD1       20.1610   14.4610   14.5630 C.3    57  ILE57       0.0001
    126  N         17.4420   19.8740   14.6100 N.am   58  LYS58      -0.1977
    127  CA        16.2310   20.6260   14.2930 C.3    58  LYS58       0.1596
    128  C         15.4880   20.0440   13.0780 C.2    58  LYS58       0.2287
    129  O         16.0960   19.6820   12.0710 O.2    58  LYS58      -0.2864
    130  CB        16.5670   22.0990   14.0260 C.3    58  LYS58       0.0298
    131  CG        16.7680   22.9460   15.2730 C.3    58  LYS58       0.0038
    132  CD        15.5260   22.9150   16.1690 C.3    58  LYS58       0.0206
    133  CE        15.7580   23.6500   17.4800 C.3    58  LYS58       0.1093
    134  NZ        15.9730   25.1140   17.2700 N.3    58  LYS58      -0.1314
    135  N         15.5430   18.3160    7.3740 N.3    68  PHE68      -0.1227
    136  CA        16.6340   18.7770    8.2260 C.3    68  PHE68       0.1736
    137  C         17.3470   19.9900    7.6340 C.2    68  PHE68       0.2596
    138  O         17.9260   20.7990    8.3640 O.2    68  PHE68      -0.2718
    139  CB        17.6380   17.6470    8.4480 C.3    68  PHE68       0.0547
    140  CG        17.0440   16.4160    9.0920 C.ar   68  PHE68      -0.0202
    141  CD1       17.2700   15.1540    8.5510 C.ar   68  PHE68      -0.0042
    142  CD2       16.2950   16.5160   10.2590 C.ar   68  PHE68      -0.0042
    143  CE1       16.7600   14.0080    9.1710 C.ar   68  PHE68      -0.0003
    144  CE2       15.7840   15.3760   10.8780 C.ar   68  PHE68      -0.0003
    145  CZ        16.0190   14.1210   10.3320 C.ar   68  PHE68      -0.0000
    146  N         17.2250   20.1580    6.3210 N.am   69  SER69      -0.1938
    147  CA        17.8190   21.2900    5.6120 C.3    69  SER69       0.2055
    148  C         17.1710   21.4880    4.2340 C.2    69  SER69       0.2643
    149  O         16.4950   20.5860    3.7290 O.2    69  SER69      -0.2714
    150  CB        19.3250   21.0640    5.4300 C.3    69  SER69       0.2130
    151  OG        19.5670   19.8850    4.6830 O.3    69  SER69      -0.2179
    152  N         17.3290   22.6900    3.6710 N.am   70  ASP70      -0.1971
    153  CA        16.8830   22.9860    2.3050 C.3    70  ASP70       0.1709
    154  C         17.5910   22.0940    1.2820 C.2    70  ASP70       0.2293
    155  O         18.7940   21.8650    1.3830 O.2    70  ASP70      -0.2864
    156  CB        17.1510   24.4600    1.9530 C.3    70  ASP70       0.1436
    157  CG        16.1630   25.4220    2.6190 C.2    70  ASP70       0.3671
    158  OD1       14.9340   25.2770    2.4210 O.co2  70  ASP70      -0.2456
    159  OD2       16.6180   26.3490    3.3270 O.co2  70  ASP70      -0.2456
    160  N         22.1240    8.7900    8.7160 N.3    89  LEU89      -0.1245
    161  CA        22.1270   10.2540    8.6860 C.3    89  LEU89       0.1561
    162  C         23.4530   10.8700    8.1890 C.2    89  LEU89       0.2260
    163  O         23.5600   12.0870    7.9980 O.2    89  LEU89      -0.2867
    164  CB        21.7760   10.8080   10.0790 C.3    89  LEU89       0.0270
    165  CG        20.3140   10.7240   10.5460 C.3    89  LEU89       0.0019
    166  CD1       20.2180   11.1600   11.9950 C.3    89  LEU89       0.0001
    167  CD2       19.4340   11.6210    9.6900 C.3    89  LEU89       0.0001
    168  N         24.1800   14.0560    5.8540 N.3    92  TYR92      -0.1227
    169  CA        24.0380   15.4270    6.3570 C.3    92  TYR92       0.1736
    170  C         25.2560   15.9190    7.1390 C.2    92  TYR92       0.2595
    171  O         25.5740   17.1050    7.1190 O.2    92  TYR92      -0.2718
    172  CB        22.8090   15.5440    7.2550 C.3    92  TYR92       0.0548
    173  CG        21.5020   15.3390    6.5390 C.ar   92  TYR92      -0.0200
    174  CD1       20.8340   14.1250    6.6250 C.ar   92  TYR92      -0.0009
    175  CD2       20.9280   16.3610    5.7820 C.ar   92  TYR92      -0.0009
    176  CE1       19.6310   13.9240    5.9720 C.ar   92  TYR92       0.0417
    177  CE2       19.7060   16.1740    5.1300 C.ar   92  TYR92       0.0417
    178  CZ        19.0680   14.9490    5.2300 C.ar   92  TYR92       0.1957
    179  OH        17.8580   14.7320    4.5980 O.3    92  TYR92      -0.2866
    180  N         25.9200   15.0010    7.8330 N.am   93  ASN93      -0.1974
    181  CA        26.9800   15.3360    8.7810 C.3    93  ASN93       0.1688
    182  C         27.7910   14.0710    9.0690 C.2    93  ASN93       0.2292
    183  O         27.2320   13.0430    9.4510 O.2    93  ASN93      -0.2864
    184  CB        26.3560   15.8660   10.0810 C.3    93  ASN93       0.1181
    185  CG        27.3880   16.3730   11.0730 C.2    93  ASN93       0.2629
    186  OD1       28.3500   15.6820   11.3920 O.2    93  ASN93      -0.2716
    187  ND2       27.1560   17.5540   11.6120 N.am   93  ASN93      -0.0877
    188  N         29.5790   13.1220   11.4870 N.3    95  LYS95      -0.1231
    189  CA        29.4680   12.6060   12.8560 C.3    95  LYS95       0.1693
    190  C         28.2190   11.7460   13.1050 C.2    95  LYS95       0.2591
    191  O         28.0760   11.1400   14.1700 O.2    95  LYS95      -0.2718
    192  CB        29.5090   13.7710   13.8590 C.3    95  LYS95       0.0285
    193  CG        30.9130   14.3370   14.0890 C.3    95  LYS95       0.0035
    194  CD        30.9010   15.8100   14.5070 C.3    95  LYS95       0.0206
    195  CE        30.5870   15.9970   15.9940 C.3    95  LYS95       0.1093
    196  NZ        30.9180   17.3830   16.4930 N.3    95  LYS95      -0.1314
    197  N         27.3400   11.6480   12.1090 N.am   96  LEU96      -0.1980
    198  CA        26.0740   10.9340   12.2900 C.3    96  LEU96       0.1596
    199  C         25.9050    9.7280   11.3700 C.2    96  LEU96       0.2287
    200  O         24.8440    9.5420   10.7720 O.2    96  LEU96      -0.2864
    201  CB        24.8830   11.8920   12.1020 C.3    96  LEU96       0.0297
    202  CG        24.7940   13.1130   13.0240 C.3    96  LEU96       0.0022
    203  CD1       23.7210   14.0590   12.5250 C.3    96  LEU96       0.0001
    204  CD2       24.5050   12.6650   14.4480 C.3    96  LEU96       0.0001
@<TRIPOS>BOND
     1   154   155    2
     2   154   153    1
     3   156   153    1
     4   156   157    1
     5   153   152    1
     6   158   157   ar
     7   157   159   ar
     8   152   148   am
     9   149   148    2
    10   148   147    1
    11   179   178    1
    12   151   150    1
    13   177   178   ar
    14   177   175   ar
    15   178   176   ar
    16   150   147    1
    17   147   146    1
    18   175   173   ar
    19   168   169    1
    20   176   174   ar
    21   146   137   am
    22   169   170    1
    23   169   172    1
    24   173   174   ar
    25   173   172    1
    26   171   170    2
    27   170   180   am
    28   135   136    1
    29   137   136    1
    30   137   138    2
    31   180   181    1
    32   163   162    2
    33   162   161    1
    34   136   139    1
    35   139   140    1
    36   141   140   ar
    37   141   143   ar
    38   161   160    1
    39   161   164    1
    40   181   182    1
    41   181   184    1
    42   182   183    2
    43   140   142   ar
    44   143   145   ar
    45   167   165    1
    46   164   165    1
    47   184   185    1
    48   142   144   ar
    49   145   144   ar
    50   165   166    1
    51   200   199    2
    52   185   186    2
    53   185   187   am
    54   199   198    1
    55   188   189    1
    56   129   128    2
    57   201   198    1
    58   201   202    1
    59   197   198    1
    60   197   190   am
    61   203   202    1
    62   189   190    1
    63   189   192    1
    64   202   204    1
    65   124   122    1
    66   128   127    1
    67   190   191    2
    68   192   193    1
    69   130   127    1
    70   130   131    1
    71   193   194    1
    72   127   126    1
    73   122   123    1
    74   122   119    1
    75   194   195    1
    76   125   123    1
    77   126   120   am
    78   120   119    1
    79   120   121    2
    80   131   132    1
    81   119   118    1
    82   195   196    1
    83   132   133    1
    84   118   112   am
    85   113   112    2
    86   134   133    1
    87   112   111    1
    88    56    57    1
    89    57    58    1
    90    57    60    1
    91    58    59    2
    92   105   106    1
    93   105   102    1
    94   106   107    1
    95    42    39    1
    96   104   103    2
    97   111   110    1
    98   111   114    1
    99   107   108    1
   100   103   110   am
   101   103   102    1
   102    61    60    1
   103    63    64    1
   104    60    62    1
   105    52    51    2
   106    30    29    2
   107   102   101    1
   108    73    72    2
   109   108   109    1
   110    65    64    1
   111    65    66    2
   112    38    39    1
   113    51    50    1
   114    64    67    1
   115   114   115    1
   116    39    40    1
   117    54    53    1
   118    27    28    1
   119    72    71    1
   120    29    28    1
   121    70    71    1
   122   101    95   am
   123    28    31    1
   124    53    50    1
   125    53    55    1
   126    71    74    1
   127    50    49    1
   128    40    41    2
   129    40    43   am
   130   115   116    1
   131   115   117    1
   132    67    68    1
   133    67    69    1
   134    49    45   am
   135    95    96    2
   136    95    94    1
   137    43    44    1
   138    74    75    1
   139    32    31    1
   140    32    33    1
   141    88    87    2
   142    37    35    1
   143    45    44    1
   144    45    46    2
   145    94    93    1
   146    94    97    1
   147    36    35    1
   148    35    34    2
   149    44    47    1
   150    75    76    1
   151    87    93   am
   152    87    86    1
   153    81    82    1
   154    47    48    1
   155    34    33    1
   156    89    86    1
   157    89    90    1
   158    97    98    1
   159    85    86    1
   160    85    83   am
   161    92    90   am
   162    76    77    1
   163    90    91    2
   164    11     9    1
   165    99    98    2
   166    82    83    1
   167    17    16    1
   168    98   100   am
   169    83    84    2
   170    18    16    1
   171     7     6    1
   172     7     8    1
   173    77    78    2
   174     9     8    2
   175     9    10    1
   176    16    13    1
   177     6     5    1
   178    78    80    1
   179    78    79    1
   180     5     2    1
   181     2     1    1
   182     2     3    1
   183    13    14    1
   184    13    12    1
   185    15    14    2
   186    14    19   am
   187     4     3    2
   188    19    20    1
   189    25    24    2
   190    20    21    1
   191    20    23    1
   192    24    26   am
   193    24    23    1
   194    22    21    2
