@<TRIPOS>MOLECULE
tmp/2iulA01.pdb
 92 88 0 0 0
SMALL
GASTEIGER

@<TRIPOS>ATOM
      1  N         40.2430   64.8540   66.1090 N.3     6  SER6       -0.1217
      2  CA        41.5400   64.2290   66.3430 C.3     6  SER6        0.1889
      3  C         41.4930   63.2180   67.5070 C.2     6  SER6        0.2288
      4  O         41.9890   62.0880   67.3840 O.2     6  SER6       -0.2866
      5  CB        42.5870   65.3130   66.6260 C.3     6  SER6        0.2089
      6  OG        43.8840   64.8690   66.2760 O.3     6  SER6       -0.2183
      7  N         39.4510   60.0900   66.6090 N.3     9  VAL9       -0.1231
      8  CA        40.2200   59.1930   65.7460 C.3     9  VAL9        0.1692
      9  C         41.2480   58.3830   66.5500 C.2     9  VAL9        0.2591
     10  O         41.4110   57.1810   66.3240 O.2     9  VAL9       -0.2718
     11  CB        40.8870   59.9720   64.5740 C.3     9  VAL9        0.0266
     12  CG1       42.0220   59.1730   63.9560 C.3     9  VAL9        0.0020
     13  CG2       39.8440   60.3250   63.5170 C.3     9  VAL9        0.0020
     14  N         41.9200   59.0430   67.4980 N.am   10  GLU10      -0.1979
     15  CA        42.8650   58.3680   68.3950 C.3    10  GLU10       0.1602
     16  C         42.1770   57.2850   69.2260 C.2    10  GLU10       0.2287
     17  O         42.6900   56.1680   69.3530 O.2    10  GLU10      -0.2864
     18  CB        43.5550   59.3750   69.3270 C.3    10  GLU10       0.0415
     19  CG        44.4770   60.3520   68.6240 C.3    10  GLU10       0.1163
     20  CD        44.9130   61.5090   69.5150 C.2    10  GLU10       0.3649
     21  OE1       44.2730   61.7460   70.5670 O.co2  10  GLU10      -0.2457
     22  OE2       45.9020   62.1840   69.1610 O.co2  10  GLU10      -0.2457
     23  N         39.3780   70.4810   58.6390 N.3    69  GLN69      -0.1231
     24  CA        40.6120   70.9400   58.0070 C.3    69  GLN69       0.1698
     25  C         41.5350   69.8140   57.5500 C.2    69  GLN69       0.2592
     26  O         41.9260   69.7650   56.3850 O.2    69  GLN69      -0.2718
     27  CB        41.2490   71.8640   58.8810 C.3    69  GLN69       0.0381
     28  CG        41.9020   73.0110   58.1250 C.3    69  GLN69       0.0905
     29  CD        42.7910   73.8610   59.0110 C.2    69  GLN69       0.2608
     30  OE1       43.1160   73.4700   60.1310 O.2    69  GLN69      -0.2717
     31  NE2       43.1860   75.0270   58.5110 N.am   69  GLN69      -0.0878
     32  N         41.8910   68.9190   58.4700 N.am   70  ASN70      -0.1960
     33  CA        42.8580   67.8560   58.1750 C.3    70  ASN70       0.1819
     34  C         42.2970   66.7810   57.2450 C.2    70  ASN70       0.2622
     35  O         41.2230   66.2330   57.4990 O.2    70  ASN70      -0.2715
     36  CB        43.3800   67.2240   59.4730 C.3    70  ASN70       0.1195
     37  CG        44.5530   66.2850   59.2410 C.2    70  ASN70       0.2630
     38  OD1       44.4030   65.2160   58.6420 O.2    70  ASN70      -0.2716
     39  ND2       45.7300   66.6790   59.7300 N.am   70  ASN70      -0.0877
     40  N         43.0540   66.4770   56.1930 N.am   71  THR71      -0.1937
     41  CA        42.6990   65.4580   55.1920 C.3    71  THR71       0.2028
     42  C         42.6700   64.0280   55.7450 C.2    71  THR71       0.2643
     43  O         41.7140   63.2850   55.4960 O.2    71  THR71      -0.2714
     44  CB        43.6470   65.5340   53.9620 C.3    71  THR71       0.1808
     45  OG1       43.2670   66.6390   53.1360 O.3    71  THR71      -0.2208
     46  CG2       43.6020   64.2480   53.1240 C.3    71  THR71       0.0379
     47  N         43.7240   63.6480   56.4690 N.am   72  THR72      -0.1936
     48  CA        43.8550   62.3010   57.0410 C.3    72  THR72       0.2028
     49  C         42.7260   61.9960   58.0390 C.2    72  THR72       0.2642
     50  O         42.1400   60.9100   58.0040 O.2    72  THR72      -0.2714
     51  CB        45.2610   62.0920   57.6800 C.3    72  THR72       0.1808
     52  OG1       46.2310   61.8790   56.6460 O.3    72  THR72      -0.2208
     53  CG2       45.2820   60.8870   58.6250 C.3    72  THR72       0.0379
     54  N         42.4210   62.9670   58.9010 N.am   73  ILE73      -0.1977
     55  CA        41.3580   62.8460   59.9030 C.3    73  ILE73       0.1596
     56  C         39.9630   62.7860   59.2580 C.2    73  ILE73       0.2287
     57  O         39.1270   61.9610   59.6470 O.2    73  ILE73      -0.2864
     58  CB        41.4410   63.9890   60.9760 C.3    73  ILE73       0.0276
     59  CG1       42.4210   63.6190   62.0960 C.3    73  ILE73       0.0022
     60  CG2       40.0860   64.2700   61.6080 C.3    73  ILE73       0.0022
     61  CD1       43.8530   64.0370   61.8460 C.3    73  ILE73       0.0001
     62  N         51.7200   50.6140   60.3540 N.3   357  ASP357     -0.1225
     63  CA        51.8650   51.7470   61.2750 C.3   357  ASP357      0.1805
     64  C         50.8620   52.8650   61.0320 C.2   357  ASP357      0.2598
     65  O         50.8720   53.8790   61.7430 O.2   357  ASP357     -0.2718
     66  CB        53.2810   52.3140   61.2130 C.3   357  ASP357      0.1424
     67  CG        54.3040   51.4020   61.8580 C.2   357  ASP357      0.3668
     68  OD1       53.9690   50.7120   62.8480 O.co2 357  ASP357     -0.2456
     69  OD2       55.4550   51.3980   61.3840 O.co2 357  ASP357     -0.2456
     70  N         50.0150   52.6890   60.0190 N.am  358  LEU358     -0.1966
     71  CA        48.9080   53.6070   59.7710 C.3   358  LEU358      0.1713
     72  C         47.7950   53.3530   60.7800 C.2   358  LEU358      0.2458
     73  O         47.7300   52.2660   61.3520 O.2   358  LEU358     -0.2730
     74  CB        48.3580   53.4180   58.3500 C.3   358  LEU358      0.0310
     75  CG        49.2020   53.8400   57.1480 C.3   358  LEU358      0.0022
     76  CD1       48.3820   53.7070   55.8740 C.3   358  LEU358      0.0001
     77  CD2       49.7400   55.2700   57.2950 C.3   358  LEU358      0.0001
     78  N         46.9210   54.3590   61.0130 N.am  359  PRO359     -0.2727
     79  CA        45.6850   54.0910   61.7520 C.3   359  PRO359      0.1402
     80  C         44.9380   52.9430   61.0650 C.2   359  PRO359      0.2269
     81  O         44.9110   52.8970   59.8300 O.2   359  PRO359     -0.2865
     82  CB        44.8910   55.3980   61.6100 C.3   359  PRO359      0.0296
     83  CG        45.8950   56.4370   61.3370 C.3   359  PRO359      0.0237
     84  CD        47.0410   55.7780   60.6210 C.3   359  PRO359      0.0939
     85  N         42.9340   52.9880   57.8660 N.3   362  LEU362     -0.1245
     86  CA        43.6270   53.2350   56.6000 C.3   362  LEU362      0.1561
     87  C         44.4760   52.0290   56.1940 C.2   362  LEU362      0.2260
     88  O         45.1410   52.0370   55.1540 O.2   362  LEU362     -0.2867
     89  CB        44.4680   54.5280   56.6860 C.3   362  LEU362      0.0270
     90  CG        43.7080   55.8220   57.0390 C.3   362  LEU362      0.0019
     91  CD1       44.6510   57.0330   57.1540 C.3   362  LEU362      0.0001
     92  CD2       42.5770   56.1120   56.0390 C.3   362  LEU362      0.0001
@<TRIPOS>BOND
     1    46    44    1
     2    45    44    1
     3    44    41    1
     4    88    87    2
     5    41    42    1
     6    41    40    1
     7    43    42    2
     8    42    47   am
     9    76    75    1
    10    92    90    1
    11    40    34   am
    12    87    86    1
    13    26    25    2
    14    47    48    1
    15    86    89    1
    16    86    85    1
    17    52    51    1
    18    89    90    1
    19    90    91    1
    20    48    51    1
    21    48    49    1
    22    75    77    1
    23    75    74    1
    24    34    35    2
    25    34    33    1
    26    25    24    1
    27    25    32   am
    28    51    53    1
    29    50    49    2
    30    24    23    1
    31    24    27    1
    32    49    54   am
    33    28    27    1
    34    28    29    1
    35    33    32    1
    36    33    36    1
    37    74    71    1
    38    31    29   am
    39    38    37    2
    40    54    55    1
    41    29    30    2
    42    37    36    1
    43    37    39   am
    44    56    57    2
    45    56    55    1
    46    71    70    1
    47    71    72    1
    48    81    80    2
    49    55    58    1
    50    70    64   am
    51    62    63    1
    52    84    78    1
    53    84    83    1
    54    72    78   am
    55    72    73    2
    56    58    60    1
    57    58    59    1
    58    78    79    1
    59    64    63    1
    60    64    65    2
    61    80    79    1
    62    66    63    1
    63    66    67    1
    64    83    82    1
    65    69    67   ar
    66    82    79    1
    67    61    59    1
    68    67    68   ar
    69    13    11    1
    70    12    11    1
    71    11     8    1
    72     8     9    1
    73     8     7    1
    74     1     2    1
    75     6     5    1
    76    10     9    2
    77     2     5    1
    78     2     3    1
    79     9    14   am
    80     4     3    2
    81    14    15    1
    82    15    16    1
    83    15    18    1
    84    19    18    1
    85    19    20    1
    86    22    20   ar
    87    16    17    2
    88    20    21   ar
