@<TRIPOS>MOLECULE
tmp/2iutB01.pdb
 121 117 0 0 0
SMALL
GASTEIGER

@<TRIPOS>ATOM
      1  N          7.5660   -0.2210  -12.2700 N.3   106  MET106     -0.1230
      2  CA         7.0020   -0.2990  -13.6100 C.3   106  MET106      0.1702
      3  C          7.1560   -1.7100  -14.1800 C.2   106  MET106      0.2592
      4  O          8.1200   -2.4130  -13.8700 O.2   106  MET106     -0.2718
      5  CB         7.7090    0.7030  -14.5230 C.3   106  MET106      0.0401
      6  CG         7.1570    0.7550  -15.9420 C.3   106  MET106      0.0596
      7  SD         8.1120    1.8580  -16.9950 S.3   106  MET106     -0.1393
      8  CE         7.3920    3.4680  -16.5900 C.3   106  MET106      0.0692
      9  N          6.1950   -2.1280  -14.9950 N.am  107  VAL107     -0.1980
     10  CA         6.2590   -3.4400  -15.6170 C.3   107  VAL107      0.1595
     11  C          6.7070   -3.2050  -17.0500 C.2   107  VAL107      0.2287
     12  O          6.0170   -2.5330  -17.8150 O.2   107  VAL107     -0.2864
     13  CB         4.8790   -4.1430  -15.6150 C.3   107  VAL107      0.0276
     14  CG1        4.9600   -5.4830  -16.3620 C.3   107  VAL107      0.0022
     15  CG2        4.4210   -4.3560  -14.1830 C.3   107  VAL107      0.0022
     16  N        -10.7920    3.5260  -21.8180 N.3   152  GLY152     -0.1210
     17  CA       -10.0110    4.2250  -20.8200 C.3   152  GLY152      0.1956
     18  C         -9.9200    5.7100  -21.1560 C.2   152  GLY152      0.2613
     19  O         -9.8450    6.0800  -22.3390 O.2   152  GLY152     -0.2717
     20  N         -9.9380    6.5710  -20.1370 N.am  153  THR153     -0.1938
     21  CA        -9.8290    8.0120  -20.3660 C.3   153  THR153      0.2028
     22  C         -8.3600    8.3890  -20.5220 C.2   153  THR153      0.2643
     23  O         -7.4800    7.5360  -20.4010 O.2   153  THR153     -0.2714
     24  CB       -10.4180    8.8410  -19.2020 C.3   153  THR153      0.1808
     25  OG1       -9.6800    8.5890  -17.9980 O.3   153  THR153     -0.2208
     26  CG2      -11.8620    8.4810  -18.9840 C.3   153  THR153      0.0379
     27  N         -8.0960    9.6680  -20.7890 N.am  154  THR154     -0.1936
     28  CA        -6.7310   10.1530  -20.9850 C.3   154  THR154      0.2028
     29  C         -5.7450    9.8410  -19.8650 C.2   154  THR154      0.2643
     30  O         -6.0600    9.9160  -18.6790 O.2   154  THR154     -0.2714
     31  CB        -6.7150   11.6620  -21.2420 C.3   154  THR154      0.1808
     32  OG1       -7.6190   12.3160  -20.3440 O.3   154  THR154     -0.2208
     33  CG2       -7.1320   11.9450  -22.6540 C.3   154  THR154      0.0379
     34  N         -4.5320    9.4940  -20.2550 N.am  155  GLY155     -0.1939
     35  CA        -3.5240    9.1640  -19.2680 C.3   155  GLY155      0.2014
     36  C         -3.7500    7.8240  -18.5930 C.2   155  GLY155      0.2640
     37  O         -3.0230    7.4920  -17.6590 O.2   155  GLY155     -0.2714
     38  N         -4.7340    7.0510  -19.0580 N.am  156  SER156     -0.1935
     39  CA        -5.0310    5.7410  -18.4520 C.3   156  SER156      0.2055
     40  C         -4.0880    4.6420  -18.9390 C.2   156  SER156      0.2644
     41  O         -3.8310    3.6720  -18.2300 O.2   156  SER156     -0.2714
     42  CB        -6.4880    5.3240  -18.7280 C.3   156  SER156      0.2130
     43  OG        -6.7180    5.0620  -20.1140 O.3   156  SER156     -0.2179
     44  N         -3.5720    4.7970  -20.1530 N.am  157  GLY157     -0.1939
     45  CA        -2.6680    3.7960  -20.6830 C.3   157  GLY157      0.2014
     46  C         -3.2690    2.9830  -21.8130 C.2   157  GLY157      0.2639
     47  O         -2.7500    1.9290  -22.1700 O.2   157  GLY157     -0.2714
     48  N         -4.3650    3.4780  -22.3730 N.am  158  LYS158     -0.1963
     49  CA        -5.0370    2.8170  -23.4780 C.3   158  LYS158      0.1728
     50  C         -4.1020    2.6550  -24.6850 C.2   158  LYS158      0.2617
     51  O         -3.9150    1.5510  -25.1960 O.2   158  LYS158     -0.2715
     52  CB        -6.2700    3.6280  -23.8910 C.3   158  LYS158      0.0311
     53  CG        -7.2650    2.8560  -24.7360 C.3   158  LYS158      0.0038
     54  CD        -8.2170    3.8000  -25.4610 C.3   158  LYS158      0.0206
     55  CE        -7.5060    4.4890  -26.6230 C.3   158  LYS158      0.1093
     56  NZ        -8.4080    5.4380  -27.3270 N.3   158  LYS158     -0.1314
     57  N         -3.5060    3.7520  -25.1370 N.am  159  SER159     -0.1936
     58  CA        -2.6190    3.6910  -26.2860 C.3   159  SER159      0.2055
     59  C         -1.3500    2.8760  -26.0340 C.2   159  SER159      0.2642
     60  O         -0.8210    2.2560  -26.9540 O.2   159  SER159     -0.2714
     61  CB        -2.2690    5.1110  -26.7620 C.3   159  SER159      0.2130
     62  OG        -3.4290    5.7760  -27.2660 O.3   159  SER159     -0.2179
     63  N         -0.8430    2.8800  -24.8070 N.am  160  VAL160     -0.1977
     64  CA         0.3420    2.0850  -24.5190 C.3   160  VAL160      0.1596
     65  C         -0.1430    0.6380  -24.5450 C.2   160  VAL160      0.2287
     66  O          0.5450   -0.2500  -25.0460 O.2   160  VAL160     -0.2864
     67  CB         0.9540    2.4280  -23.1390 C.3   160  VAL160      0.0276
     68  CG1        1.8730    1.3200  -22.6770 C.3   160  VAL160      0.0022
     69  CG2        1.7500    3.7050  -23.2380 C.3   160  VAL160      0.0022
     70  N         -1.1710    8.6090  -32.2270 N.3   189  GLU189     -0.1245
     71  CA        -0.9810    7.2470  -31.7080 C.3   189  GLU189      0.1567
     72  C         -0.5560    6.0760  -32.5930 C.2   189  GLU189      0.2260
     73  O          0.3570    5.3440  -32.2270 O.2   189  GLU189     -0.2867
     74  CB        -2.2240    6.8300  -30.9090 C.3   189  GLU189      0.0388
     75  CG        -2.7050    7.8880  -29.9110 C.3   189  GLU189      0.1160
     76  CD        -1.8880    7.9270  -28.6190 C.2   189  GLU189      0.3649
     77  OE1       -0.6630    7.6790  -28.6520 O.co2 189  GLU189     -0.2457
     78  OE2       -2.4870    8.2250  -27.5630 O.co2 189  GLU189     -0.2457
     79  N        -11.7780    6.1440  -26.0310 N.3   317  GLN317     -0.1245
     80  CA       -11.4590    6.9590  -24.8800 C.3   317  GLN317      0.1566
     81  C        -12.7530    7.5960  -24.3890 C.2   317  GLN317      0.2260
     82  O        -12.7920    8.1990  -23.3230 O.2   317  GLN317     -0.2867
     83  CB       -10.4370    8.0160  -25.2820 C.3   317  GLN317      0.0367
     84  CG       -10.1220    9.0110  -24.2060 C.3   317  GLN317      0.0905
     85  CD        -9.4740   10.2590  -24.7610 C.2   317  GLN317      0.2608
     86  OE1       -9.4340   11.2900  -24.0950 O.2   317  GLN317     -0.2717
     87  NE2       -8.9590   10.1710  -25.9900 N.am  317  GLN317     -0.0878
     88  N         -2.0580    4.9690  -15.8540 N.3   361  HIS361     -0.1226
     89  CA        -0.7300    4.5220  -16.2440 C.3   361  HIS361      0.1752
     90  C         -0.6580    3.0130  -16.4690 C.2   361  HIS361      0.2596
     91  O          0.2730    2.3490  -15.9880 O.2   361  HIS361     -0.2718
     92  CB         0.3230    4.9170  -15.1890 C.3   361  HIS361      0.0759
     93  CG         0.4020    6.3870  -14.9200 C.ar  361  HIS361      0.0818
     94  ND1        0.4910    7.3280  -15.9260 N.ar  361  HIS361     -0.2268
     95  CD2        0.4310    7.0790  -13.7550 C.ar  361  HIS361      0.1154
     96  CE1        0.5720    8.5340  -15.3930 C.ar  361  HIS361      0.1986
     97  NE2        0.5370    8.4110  -14.0770 N.ar  361  HIS361     -0.2212
     98  N         -1.6330    2.4560  -17.1820 N.am  362  GLY362     -0.1957
     99  CA        -1.5630    1.0290  -17.4610 C.3   362  GLY362      0.1869
    100  C         -2.4140    0.0920  -16.6310 C.2   362  GLY362      0.2309
    101  O         -2.7100   -1.0210  -17.0630 O.2   362  GLY362     -0.2863
    102  N         -0.7050   -3.1760  -16.8320 N.3   379  GLY379     -0.1210
    103  CA        -0.2060   -3.1340  -18.1980 C.3   379  GLY379      0.1956
    104  C          1.2970   -3.0160  -18.3520 C.2   379  GLY379      0.2612
    105  O          1.9540   -2.2820  -17.6090 O.2   379  GLY379     -0.2717
    106  N          1.8420   -3.7280  -19.3320 N.am  380  ALA380     -0.1965
    107  CA         3.2760   -3.6920  -19.6030 C.3   380  ALA380      0.1728
    108  C          3.5740   -2.3920  -20.3250 C.2   380  ALA380      0.2616
    109  O          2.8490   -2.0180  -21.2470 O.2   380  ALA380     -0.2715
    110  CB         3.6780   -4.8620  -20.4730 C.3   380  ALA380      0.0334
    111  N          4.6430   -1.7130  -19.9160 N.am  381  PHE381     -0.1974
    112  CA         5.0090   -0.4370  -20.5310 C.3   381  PHE381      0.1639
    113  C          5.9130   -0.5240  -21.7450 C.2   381  PHE381      0.2290
    114  O          6.9950   -1.1150  -21.6820 O.2   381  PHE381     -0.2864
    115  CB         5.7140    0.4770  -19.5350 C.3   381  PHE381      0.0560
    116  CG         6.2080    1.7630  -20.1540 C.ar  381  PHE381     -0.0200
    117  CD1        5.3070    2.7180  -20.6180 C.ar  381  PHE381     -0.0042
    118  CD2        7.5690    1.9900  -20.3330 C.ar  381  PHE381     -0.0042
    119  CE1        5.7520    3.8710  -21.2540 C.ar  381  PHE381     -0.0003
    120  CE2        8.0220    3.1430  -20.9680 C.ar  381  PHE381     -0.0003
    121  CZ         7.1110    4.0830  -21.4300 C.ar  381  PHE381     -0.0000
@<TRIPOS>BOND
     1    72    73    2
     2    72    71    1
     3    70    71    1
     4    71    74    1
     5    74    75    1
     6    75    76    1
     7    77    76   ar
     8    76    78   ar
     9    56    55    1
    10    62    61    1
    11    60    59    2
    12    61    58    1
    13    55    54    1
    14    58    59    1
    15    58    57    1
    16    59    63   am
    17    79    80    1
    18    87    85   am
    19    54    53    1
    20    83    80    1
    21    83    84    1
    22    51    50    2
    23    57    50   am
    24    66    65    2
    25    80    81    1
    26    63    64    1
    27    85    84    1
    28    85    86    2
    29    53    52    1
    30    50    49    1
    31    65    64    1
    32    64    67    1
    33    81    82    2
    34    52    49    1
    35    49    48    1
    36    69    67    1
    37    67    68    1
    38    33    31    1
    39    48    46   am
    40    19    18    2
    41    47    46    2
    42    16    17    1
    43    46    45    1
    44   113   114    2
    45   113   112    1
    46   121   119   ar
    47   121   120   ar
    48   119   117   ar
    49   109   108    2
    50    31    28    1
    51    31    32    1
    52    18    17    1
    53    18    20   am
    54    28    27    1
    55    28    29    1
    56   120   118   ar
    57    27    22   am
    58    45    44    1
    59   117   116   ar
    60   112   111    1
    61   112   115    1
    62    22    23    2
    63    22    21    1
    64   110   107    1
    65    21    20    1
    66    21    24    1
    67   118   116   ar
    68   108   111   am
    69   108   107    1
    70    34    29   am
    71    34    35    1
    72   116   115    1
    73    44    40   am
    74    43    42    1
    75    29    30    2
    76   107   106    1
    77   106   104   am
    78    35    36    1
    79    24    26    1
    80    24    25    1
    81    38    36   am
    82    38    39    1
    83    40    39    1
    84    40    41    2
    85    42    39    1
    86    36    37    2
    87   104   103    1
    88   104   105    2
    89   103   102    1
    90    12    11    2
    91    99    98    1
    92    99   100    1
    93    98    90   am
    94   101   100    2
    95    11    10    1
    96     7     8    1
    97     7     6    1
    98    90    89    1
    99    90    91    2
   100    14    13    1
   101    89    88    1
   102    89    92    1
   103     6     5    1
   104    94    96   ar
   105    94    93   ar
   106    10    13    1
   107    10     9    1
   108    13    15    1
   109    96    97   ar
   110    92    93    1
   111     9     3   am
   112    93    95   ar
   113     5     2    1
   114     3     4    2
   115     3     2    1
   116    97    95   ar
   117     2     1    1
