@<TRIPOS>MOLECULE
tmp/2iuuE00.pdb
 128 123 0 0 0
SMALL
GASTEIGER

@<TRIPOS>ATOM
      1  N        -15.1370   58.8110   -6.3050 N.3   104  ARG104     -0.1245
      2  CA       -15.9650   58.0330   -7.2090 C.3   104  ARG104      0.1563
      3  C        -17.2450   57.7240   -6.4650 C.2   104  ARG104      0.2260
      4  O        -17.2080   57.1250   -5.3900 O.2   104  ARG104     -0.2867
      5  CB       -15.3030   56.7030   -7.5950 C.3   104  ARG104      0.0307
      6  CG       -16.2840   55.7840   -8.3250 C.3   104  ARG104      0.0489
      7  CD       -15.9390   54.3110   -8.2430 C.3   104  ARG104      0.2205
      8  NE       -14.7870   53.9640   -9.0680 N.pl3 104  ARG104     -0.0865
      9  CZ       -14.5800   52.7530   -9.5780 C.cat 104  ARG104      0.5346
     10  NH1      -13.5040   52.5040  -10.3190 N.pl3 104  ARG104      0.1354
     11  NH2      -15.4610   51.7860   -9.3580 N.pl3 104  ARG104      0.1354
     12  N        -20.4770   55.6010   -6.0260 N.3   106  MET106     -0.1230
     13  CA       -20.9100   54.2650   -6.3930 C.3   106  MET106      0.1702
     14  C        -22.2230   54.1680   -7.1790 C.2   106  MET106      0.2592
     15  O        -23.0650   55.0630   -7.1290 O.2   106  MET106     -0.2718
     16  CB       -21.0090   53.4270   -5.1270 C.3   106  MET106      0.0401
     17  CG       -21.2720   51.9790   -5.3830 C.3   106  MET106      0.0596
     18  SD       -21.0670   51.0560   -3.8830 S.3   106  MET106     -0.1393
     19  CE       -19.2500   50.8480   -3.8550 C.3   106  MET106      0.0692
     20  N        -22.3820   53.0740   -7.9170 N.am  107  VAL107     -0.1980
     21  CA       -23.5950   52.8400   -8.6870 C.3   107  VAL107      0.1595
     22  C        -24.2120   51.5870   -8.0860 C.2   107  VAL107      0.2287
     23  O        -23.5940   50.5220   -8.1080 O.2   107  VAL107     -0.2864
     24  CB       -23.2820   52.6100  -10.1870 C.3   107  VAL107      0.0276
     25  CG1      -24.5600   52.3000  -10.9570 C.3   107  VAL107      0.0022
     26  CG2      -22.6190   53.8380  -10.7680 C.3   107  VAL107      0.0022
     27  N         -9.0880   40.8780  -15.1390 N.3   153  THR153     -0.1203
     28  CA        -8.2030   40.2490  -14.1450 C.3   153  THR153      0.1994
     29  C         -8.7850   40.3880  -12.7630 C.2   153  THR153      0.2619
     30  O         -9.6820   41.2040  -12.5360 O.2   153  THR153     -0.2717
     31  CB        -6.8270   40.8620  -14.0880 C.3   153  THR153      0.1784
     32  OG1       -6.9550   42.2700  -14.2960 O.3   153  THR153     -0.2211
     33  CG2       -5.8990   40.2090  -15.1380 C.3   153  THR153      0.0376
     34  N         -8.2620   39.5920  -11.8370 N.am  154  THR154     -0.1938
     35  CA        -8.7630   39.6310  -10.4760 C.3   154  THR154      0.2028
     36  C         -8.6630   41.0700   -9.9790 C.2   154  THR154      0.2643
     37  O         -7.6460   41.7400  -10.1650 O.2   154  THR154     -0.2714
     38  CB        -7.9690   38.6820   -9.5420 C.3   154  THR154      0.1808
     39  OG1       -6.7880   39.3470   -9.0930 O.3   154  THR154     -0.2208
     40  CG2       -7.5610   37.4010  -10.2760 C.3   154  THR154      0.0379
     41  N         -9.7500   41.5430   -9.3800 N.am  155  GLY155     -0.1939
     42  CA        -9.8020   42.9030   -8.8790 C.3   155  GLY155      0.2014
     43  C        -10.5640   43.8650   -9.7790 C.2   155  GLY155      0.2640
     44  O        -10.9080   44.9680   -9.3490 O.2   155  GLY155     -0.2714
     45  N        -10.8380   43.4620  -11.0210 N.am  156  SER156     -0.1935
     46  CA       -11.5430   44.3210  -11.9870 C.3   156  SER156      0.2055
     47  C        -13.0380   44.4620  -11.7310 C.2   156  SER156      0.2644
     48  O        -13.6580   45.4320  -12.1740 O.2   156  SER156     -0.2714
     49  CB       -11.3430   43.7890  -13.4040 C.3   156  SER156      0.2130
     50  OG       -11.7540   42.4250  -13.4960 O.3   156  SER156     -0.2179
     51  N        -13.6190   43.4900  -11.0360 N.am  157  GLY157     -0.1939
     52  CA       -15.0460   43.5560  -10.7620 C.3   157  GLY157      0.2014
     53  C        -15.8710   42.7140  -11.7180 C.2   157  GLY157      0.2639
     54  O        -17.0500   42.9850  -11.9580 O.2   157  GLY157     -0.2714
     55  N        -15.2390   41.6770  -12.2500 N.am  158  LYS158     -0.1963
     56  CA       -15.8950   40.7810  -13.1880 C.3   158  LYS158      0.1728
     57  C        -16.9540   39.8980  -12.5240 C.2   158  LYS158      0.2617
     58  O        -18.0610   39.7400  -13.0490 O.2   158  LYS158     -0.2715
     59  CB       -14.8600   39.8860  -13.8570 C.3   158  LYS158      0.0311
     60  CG       -15.4340   38.9770  -14.9160 C.3   158  LYS158      0.0038
     61  CD       -14.6180   37.7010  -15.0310 C.3   158  LYS158      0.0206
     62  CE       -14.7460   36.8400  -13.7800 C.3   158  LYS158      0.1093
     63  NZ       -14.0590   35.5120  -13.9770 N.3   158  LYS158     -0.1314
     64  N        -16.6040   39.3110  -11.3800 N.am  159  SER159     -0.1936
     65  CA       -17.5230   38.4430  -10.6470 C.3   159  SER159      0.2055
     66  C        -18.8160   39.1650  -10.2760 C.2   159  SER159      0.2642
     67  O        -19.9150   38.6220  -10.4390 O.2   159  SER159     -0.2714
     68  CB       -16.8450   37.9180   -9.3860 C.3   159  SER159      0.2130
     69  OG       -15.7050   37.1530   -9.7260 O.3   159  SER159     -0.2179
     70  N        -18.6780   40.3840   -9.7650 N.am  160  VAL160     -0.1977
     71  CA       -19.8320   41.1840   -9.3990 C.3   160  VAL160      0.1596
     72  C        -20.6670   41.4520  -10.6570 C.2   160  VAL160      0.2287
     73  O        -21.8930   41.3320  -10.6390 O.2   160  VAL160     -0.2864
     74  CB       -19.3880   42.5280   -8.7720 C.3   160  VAL160      0.0276
     75  CG1      -20.5780   43.4670   -8.6260 C.3   160  VAL160      0.0022
     76  CG2      -18.7640   42.2810   -7.4150 C.3   160  VAL160      0.0022
     77  N        -17.6210   31.0620   -7.0290 N.3   189  GLU189     -0.1245
     78  CA       -18.5850   32.0380   -7.5090 C.3   189  GLU189      0.1567
     79  C        -20.0510   31.7210   -7.7760 C.2   189  GLU189      0.2260
     80  O        -20.9170   32.3800   -7.2150 O.2   189  GLU189     -0.2867
     81  CB       -18.0060   32.7450   -8.7380 C.3   189  GLU189      0.0388
     82  CG       -16.8410   33.6960   -8.4270 C.3   189  GLU189      0.1160
     83  CD       -17.1340   34.6570   -7.2640 C.2   189  GLU189      0.3649
     84  OE1      -18.2350   35.2700   -7.2280 O.co2 189  GLU189     -0.2457
     85  OE2      -16.2520   34.8000   -6.3850 O.co2 189  GLU189     -0.2457
     86  N        -10.5460   35.3140  -16.5050 N.3   317  GLN317     -0.1245
     87  CA        -9.6280   36.3020  -15.9300 C.3   317  GLN317      0.1566
     88  C         -8.2970   36.1840  -16.6530 C.2   317  GLN317      0.2260
     89  O         -7.3630   36.9420  -16.3800 O.2   317  GLN317     -0.2867
     90  CB        -9.3980   36.0400  -14.4460 C.3   317  GLN317      0.0367
     91  CG       -10.6620   36.0620  -13.5900 C.3   317  GLN317      0.0905
     92  CD       -10.3710   35.7030  -12.1490 C.2   317  GLN317      0.2608
     93  OE1       -9.8650   34.6100  -11.8600 O.2   317  GLN317     -0.2717
     94  NE2      -10.6790   36.6210  -11.2350 N.am  317  GLN317     -0.0878
     95  N        -12.8820   47.9910  -10.1730 N.3   361  HIS361     -0.1226
     96  CA       -14.1750   48.1040   -9.5070 C.3   361  HIS361      0.1752
     97  C        -15.3700   48.2930  -10.4370 C.2   361  HIS361      0.2596
     98  O        -16.1440   49.2390  -10.2850 O.2   361  HIS361     -0.2718
     99  CB       -14.1510   49.2460   -8.4900 C.3   361  HIS361      0.0759
    100  CG       -13.2180   49.0070   -7.3470 C.ar  361  HIS361      0.0818
    101  ND1      -13.1550   47.8000   -6.6830 N.ar  361  HIS361     -0.2268
    102  CD2      -12.3110   49.8140   -6.7510 C.ar  361  HIS361      0.1154
    103  CE1      -12.2480   47.8750   -5.7270 C.ar  361  HIS361      0.1986
    104  NE2      -11.7210   49.0860   -5.7470 N.ar  361  HIS361     -0.2212
    105  N        -15.5140   47.3920  -11.4040 N.am  362  GLY362     -0.1957
    106  CA       -16.6440   47.4610  -12.3190 C.3   362  GLY362      0.1869
    107  C        -16.5380   48.3610  -13.5360 C.2   362  GLY362      0.2309
    108  O        -17.4710   48.4010  -14.3370 O.2   362  GLY362     -0.2863
    109  N        -19.9300   49.6260  -14.1500 N.3   379  GLY379     -0.1210
    110  CA       -20.7580   48.5560  -13.6360 C.3   379  GLY379      0.1956
    111  C        -21.4150   48.8230  -12.3060 C.2   379  GLY379      0.2612
    112  O        -20.8390   49.4410  -11.4160 O.2   379  GLY379     -0.2717
    113  N        -22.6400   48.3410  -12.1790 N.am  380  ALA380     -0.1965
    114  CA       -23.3860   48.5010  -10.9550 C.3   380  ALA380      0.1728
    115  C        -22.8320   47.5510   -9.8940 C.2   380  ALA380      0.2616
    116  O        -22.3260   46.4800  -10.2000 O.2   380  ALA380     -0.2715
    117  CB       -24.8610   48.2110  -11.2120 C.3   380  ALA380      0.0334
    118  N        -22.9110   47.9580   -8.6390 N.am  381  PHE381     -0.1974
    119  CA       -22.4270   47.1190   -7.5570 C.3   381  PHE381      0.1639
    120  C        -23.5650   46.2900   -6.9540 C.2   381  PHE381      0.2290
    121  O        -24.6540   46.8010   -6.6460 O.2   381  PHE381     -0.2864
    122  CB       -21.7980   47.9630   -6.4540 C.3   381  PHE381      0.0560
    123  CG       -21.3310   47.1580   -5.2960 C.ar  381  PHE381     -0.0200
    124  CD1      -20.1490   46.4340   -5.3690 C.ar  381  PHE381     -0.0042
    125  CD2      -22.0940   47.0790   -4.1420 C.ar  381  PHE381     -0.0042
    126  CE1      -19.7250   45.6320   -4.3000 C.ar  381  PHE381     -0.0003
    127  CE2      -21.6870   46.2820   -3.0680 C.ar  381  PHE381     -0.0003
    128  CZ       -20.4960   45.5550   -3.1490 C.ar  381  PHE381     -0.0000
@<TRIPOS>BOND
     1    88    89    2
     2    88    87    1
     3    86    87    1
     4    87    90    1
     5    27    28    1
     6    33    31    1
     7    61    60    1
     8    61    62    1
     9    60    59    1
    10    90    91    1
    11   108   107    2
    12    32    31    1
    13   109   110    1
    14    28    31    1
    15    28    29    1
    16    63    62    1
    17    59    56    1
    18   110   111    1
    19    91    92    1
    20   107   106    1
    21    50    49    1
    22    49    46    1
    23    56    57    1
    24    56    55    1
    25    58    57    2
    26    29    30    2
    27    29    34   am
    28    57    64   am
    29   106   105    1
    30   111   113   am
    31   111   112    2
    32    55    53   am
    33   113   114    1
    34    48    47    2
    35    92    93    2
    36    92    94   am
    37    46    47    1
    38    46    45    1
    39    54    53    2
    40    34    35    1
    41    47    51   am
    42    53    52    1
    43   105    97   am
    44    64    65    1
    45   117   114    1
    46    51    52    1
    47    45    43   am
    48    25    24    1
    49   114   115    1
    50    26    24    1
    51    72    73    2
    52    72    71    1
    53    65    66    1
    54    65    68    1
    55    35    36    1
    56    35    38    1
    57    67    66    2
    58    97    98    2
    59    97    96    1
    60    10     9    1
    61    66    70   am
    62    40    38    1
    63   116   115    2
    64    24    21    1
    65    95    96    1
    66    37    36    2
    67    36    41   am
    68   115   118   am
    69    43    44    2
    70    43    42    1
    71    70    71    1
    72    69    68    1
    73     9    11    1
    74     9     8    2
    75    38    39    1
    76    96    99    1
    77    71    74    1
    78    41    42    1
    79     8     7    1
    80    74    75    1
    81    74    76    1
    82    81    82    1
    83    81    78    1
    84    21    22    1
    85    21    20    1
    86   118   119    1
    87    99   100    1
    88    82    83    1
    89     6     7    1
    90     6     5    1
    91    23    22    2
    92    20    14   am
    93    79    78    1
    94    79    80    2
    95     5     2    1
    96   119   120    1
    97   119   122    1
    98    78    77    1
    99   100   102   ar
   100   100   101   ar
   101    83    84   ar
   102    83    85   ar
   103     2     3    1
   104     2     1    1
   105    14    15    2
   106    14    13    1
   107   120   121    2
   108   102   104   ar
   109   101   103   ar
   110     3     4    2
   111   122   123    1
   112    13    12    1
   113    13    16    1
   114   104   103   ar
   115    17    16    1
   116    17    18    1
   117   124   123   ar
   118   124   126   ar
   119   123   125   ar
   120   126   128   ar
   121   125   127   ar
   122    18    19    1
   123   128   127   ar
