@<TRIPOS>MOLECULE
tmp/2iuwA00.pdb
 143 131 0 0 0
SMALL
GASTEIGER

@<TRIPOS>ATOM
      1  N         38.7890   20.4390   -5.3450 N.3    65  ARG65      -0.1245
      2  CA        40.1020   20.7520   -4.7950 C.3    65  ARG65       0.1563
      3  C         40.9910   21.2430   -5.9330 C.2    65  ARG65       0.2260
      4  O         40.7090   20.9550   -7.1030 O.2    65  ARG65      -0.2867
      5  CB        40.7270   19.5640   -4.0430 C.3    65  ARG65       0.0307
      6  CG        41.1730   18.4540   -4.9960 C.3    65  ARG65       0.0489
      7  CD        41.5940   17.2810   -4.1250 C.3    65  ARG65       0.2205
      8  NE        42.6150   16.4560   -4.6820 N.pl3  65  ARG65      -0.0865
      9  CZ        42.4030   15.4840   -5.5610 C.cat  65  ARG65       0.5346
     10  NH1       43.5070   14.8320   -5.9510 N.pl3  65  ARG65       0.1354
     11  NH2       41.1160   15.3590   -5.8960 N.pl3  65  ARG65       0.1354
     12  N         48.0410   18.9110   -3.7840 N.3   112  ASN112     -0.1240
     13  CA        46.6250   19.1000   -3.4900 C.3   112  ASN112      0.1653
     14  C         46.4200   20.3580   -2.6600 C.2   112  ASN112      0.2266
     15  O         47.1270   20.5460   -1.6470 O.2   112  ASN112     -0.2867
     16  CB        46.0470   17.9130   -2.7090 C.3   112  ASN112      0.1155
     17  CG        46.1680   16.6090   -3.4770 C.2   112  ASN112      0.2627
     18  OD1       45.5630   16.5250   -4.5600 O.2   112  ASN112     -0.2716
     19  ND2       46.8920   15.6030   -2.9580 N.am  112  ASN112     -0.0877
     20  N         43.3740   22.1700   -0.5890 N.3   114  TYR114     -0.1241
     21  CA        41.9940   22.2070   -0.0740 C.3   114  TYR114      0.1605
     22  C         41.7460   23.6330    0.3840 C.2   114  TYR114      0.2264
     23  O         42.2430   24.0600    1.4210 O.2   114  TYR114     -0.2867
     24  CB        41.8240   21.1620    1.0240 C.3   114  TYR114      0.0534
     25  CG        42.1920   19.7630    0.5790 C.ar  114  TYR114     -0.0201
     26  CD1       43.5210   19.3320    0.6450 C.ar  114  TYR114     -0.0009
     27  CD2       41.2330   18.8700    0.1090 C.ar  114  TYR114     -0.0009
     28  CE1       43.8870   18.0460    0.2410 C.ar  114  TYR114      0.0417
     29  CE2       41.5670   17.5880   -0.2930 C.ar  114  TYR114      0.0417
     30  CZ        42.8920   17.2040   -0.2160 C.ar  114  TYR114      0.1957
     31  OH        43.1990   15.9310   -0.6200 O.3   114  TYR114     -0.2866
     32  N         38.4230   15.1310   -1.0060 N.3   121  VAL121     -0.1245
     33  CA        38.6290   14.0860   -2.0070 C.3   121  VAL121      0.1561
     34  C         37.8400   12.8640   -1.5300 C.2   121  VAL121      0.2260
     35  O         37.9040   12.5120   -0.3300 O.2   121  VAL121     -0.2867
     36  CB        40.1020   13.7650   -2.2880 C.3   121  VAL121      0.0252
     37  CG1       40.8180   13.2220   -1.0660 C.3   121  VAL121      0.0019
     38  CG2       40.2520   12.7840   -3.4770 C.3   121  VAL121      0.0019
     39  N         38.8080    6.5250   -2.3260 N.3   124  HIS124     -0.1241
     40  CA        39.5200    5.8760   -3.4140 C.3   124  HIS124      0.1621
     41  C         40.7120    5.1060   -2.8560 C.2   124  HIS124      0.2264
     42  O         41.0650    5.2680   -1.6940 O.2   124  HIS124     -0.2867
     43  CB        40.0440    6.9040   -4.4160 C.3   124  HIS124      0.0745
     44  CG        41.1250    7.7790   -3.8290 C.ar  124  HIS124      0.0817
     45  ND1       40.8160    8.8190   -2.9490 N.ar  124  HIS124     -0.2268
     46  CD2       42.4660    7.8140   -3.9510 C.ar  124  HIS124      0.1154
     47  CE1       41.9190    9.4690   -2.5550 C.ar  124  HIS124      0.1986
     48  NE2       42.9620    8.8550   -3.1620 N.ar  124  HIS124     -0.2212
     49  N         44.8910    4.1980   -4.0510 N.3   126  ASP126     -0.1239
     50  CA        45.9060    4.6350   -5.0040 C.3   126  ASP126      0.1674
     51  C         46.3660    3.3440   -5.7120 C.2   126  ASP126      0.2266
     52  O         47.4410    2.7890   -5.4690 O.2   126  ASP126     -0.2867
     53  CB        47.0580    5.3820   -4.3550 C.3   126  ASP126      0.1410
     54  CG        46.7830    6.7820   -3.8790 C.2   126  ASP126      0.3668
     55  OD1       47.7230    7.5720   -3.6840 O.co2 126  ASP126     -0.2456
     56  OD2       45.6170    7.1850   -3.6430 O.co2 126  ASP126     -0.2456
     57  N         53.1580   11.1990    2.0240 N.3   139  SER139     -0.1217
     58  CA        52.2390   12.3250    2.0670 C.3   139  SER139      0.1889
     59  C         52.7380   13.3580    3.0350 C.2   139  SER139      0.2288
     60  O         52.9580   13.0410    4.2160 O.2   139  SER139     -0.2866
     61  CB        50.8830   11.7660    2.5620 C.3   139  SER139      0.2089
     62  OG        50.0420   12.8520    2.9150 O.3   139  SER139     -0.2183
     63  N         42.4360   12.4490    7.3780 N.3   148  PHE148     -0.1241
     64  CA        42.6310   11.3770    6.4100 C.3   148  PHE148      0.1605
     65  C         41.8690   10.1630    6.9180 C.2   148  PHE148      0.2264
     66  O         42.3080    9.5550    7.9070 O.2   148  PHE148     -0.2867
     67  CB        44.1340   11.1590    6.2300 C.3   148  PHE148      0.0534
     68  CG        44.5550   10.1450    5.1780 C.ar  148  PHE148     -0.0203
     69  CD1       44.6720   10.5420    3.8440 C.ar  148  PHE148     -0.0042
     70  CD2       44.8420    8.8240    5.5360 C.ar  148  PHE148     -0.0042
     71  CE1       45.0660    9.6190    2.8720 C.ar  148  PHE148     -0.0003
     72  CE2       45.2570    7.8990    4.5730 C.ar  148  PHE148     -0.0003
     73  CZ        45.3920    8.3210    3.2530 C.ar  148  PHE148     -0.0000
     74  N         45.8690   14.9920    9.8630 N.3   164  LEU164     -0.1245
     75  CA        47.1340   15.3350    9.2410 C.3   164  LEU164      0.1561
     76  C         47.3290   16.8420    9.4380 C.2   164  LEU164      0.2260
     77  O         46.6510   17.6450    8.7630 O.2   164  LEU164     -0.2867
     78  CB        47.1650   14.9440    7.7520 C.3   164  LEU164      0.0270
     79  CG        47.1120   13.4480    7.4780 C.3   164  LEU164      0.0019
     80  CD1       47.0970   13.2550    5.9800 C.3   164  LEU164      0.0001
     81  CD2       48.3020   12.7480    8.1410 C.3   164  LEU164      0.0001
     82  N         52.2720    5.3370    3.4450 N.3   172  MET172     -0.1245
     83  CA        51.4540    4.1380    3.2820 C.3   172  MET172      0.1570
     84  C         52.2700    3.1260    2.4780 C.2   172  MET172      0.2261
     85  O         52.8520    3.4790    1.4530 O.2   172  MET172     -0.2867
     86  CB        50.1680    4.4200    2.5050 C.3   172  MET172      0.0387
     87  CG        49.1780    5.3070    3.2350 C.3   172  MET172      0.0595
     88  SD        47.7100    5.6200    2.2200 S.3   172  MET172     -0.1393
     89  CE        48.2920    6.8830    1.1070 C.3   172  MET172      0.0692
     90  N         40.7020    5.4250    1.0780 N.3   182  HIS182     -0.1241
     91  CA        40.8930    6.5790    1.9410 C.3   182  HIS182      0.1621
     92  C         40.2470    7.7980    1.2800 C.2   182  HIS182      0.2264
     93  O         39.9340    7.7920    0.0730 O.2   182  HIS182     -0.2867
     94  CB        42.3820    6.8450    2.2410 C.3   182  HIS182      0.0745
     95  CG        43.2370    6.9240    1.0140 C.ar  182  HIS182      0.0817
     96  ND1       43.8510    5.8560    0.3990 N.ar  182  HIS182     -0.2268
     97  CD2       43.5560    8.0320    0.3130 C.ar  182  HIS182      0.1154
     98  CE1       44.5230    6.3170   -0.6570 C.ar  182  HIS182      0.1986
     99  NE2       44.3440    7.6580   -0.7300 N.ar  182  HIS182     -0.2212
    100  N         39.5060   12.4440    2.1440 N.3   184  VAL184     -0.1245
    101  CA        39.6010   13.6010    3.0500 C.3   184  VAL184      0.1561
    102  C         38.2160   14.2420    3.0150 C.2   184  VAL184      0.2260
    103  O         37.8330   14.8300    1.9810 O.2   184  VAL184     -0.2867
    104  CB        40.6840   14.6010    2.6400 C.3   184  VAL184      0.0252
    105  CG1       40.6300   15.8550    3.5300 C.3   184  VAL184      0.0019
    106  CG2       42.0240   13.8900    2.7380 C.3   184  VAL184      0.0019
    107  N         44.6880   24.0370    3.2110 N.3   194  ARG194     -0.1245
    108  CA        45.6310   22.9630    3.4520 C.3   194  ARG194      0.1563
    109  C         46.2930   22.5980    2.1300 C.2   194  ARG194      0.2260
    110  O         45.5690   22.4400    1.1220 O.2   194  ARG194     -0.2867
    111  CB        44.9380   21.7360    4.0650 C.3   194  ARG194      0.0307
    112  CG        45.8410   20.4880    4.0970 C.3   194  ARG194      0.0489
    113  CD        45.1410   19.3710    4.8720 C.3   194  ARG194      0.2205
    114  NE        45.9260   18.1520    4.8590 N.pl3 194  ARG194     -0.0865
    115  CZ        45.8030   17.1310    4.0160 C.cat 194  ARG194      0.5346
    116  NH1       44.8610   17.1280    3.0600 N.pl3 194  ARG194      0.1354
    117  NH2       46.6070   16.0550    4.0970 N.pl3 194  ARG194      0.1354
    118  N         48.6020   19.5770    0.5270 N.3   196  ASN196     -0.1240
    119  CA        49.1360   18.2120    0.7130 C.3   196  ASN196      0.1653
    120  C         50.0060   17.8740   -0.4750 C.2   196  ASN196      0.2266
    121  O         49.6560   18.1350   -1.6350 O.2   196  ASN196     -0.2867
    122  CB        48.0050   17.1870    0.8510 C.3   196  ASN196      0.1155
    123  CG        48.5920   15.7830    0.8890 C.2   196  ASN196      0.2627
    124  OD1       49.1650   15.2760    1.9000 O.2   196  ASN196     -0.2716
    125  ND2       48.4720   15.1150   -0.2360 N.am  196  ASN196     -0.0877
    126  N         51.6830   14.6050   -2.2990 N.3   198  THR198     -0.1218
    127  CA        51.6800   13.1210   -2.3100 C.3   198  THR198      0.1862
    128  C         52.6880   12.6500   -3.3500 C.2   198  THR198      0.2287
    129  O         52.5460   12.8990   -4.5560 O.2   198  THR198     -0.2866
    130  CB        50.2480   12.5970   -2.5530 C.3   198  THR198      0.1770
    131  OG1       49.4020   12.8320   -1.4020 O.3   198  THR198     -0.2211
    132  CG2       50.2670   11.0920   -2.7710 C.3   198  THR198      0.0375
    133  N         54.9030    9.6480   -5.1670 N.3   200  ARG200     -0.1245
    134  CA        54.7080    8.2720   -5.6170 C.3   200  ARG200      0.1563
    135  C         55.8430    7.8570   -6.5580 C.2   200  ARG200      0.2260
    136  O         56.6100    8.7220   -7.0190 O.2   200  ARG200     -0.2867
    137  CB        53.3790    8.1200   -6.3750 C.3   200  ARG200      0.0307
    138  CG        52.1700    8.4950   -5.4830 C.3   200  ARG200      0.0489
    139  CD        50.8980    8.2920   -6.2990 C.3   200  ARG200      0.2205
    140  NE        49.6460    8.6880   -5.6740 N.pl3 200  ARG200     -0.0865
    141  CZ        49.0060    9.8390   -5.8110 C.cat 200  ARG200      0.5346
    142  NH1       49.5420   10.7890   -6.5710 N.pl3 200  ARG200      0.1354
    143  NH2       47.8530   10.0280   -5.1770 N.pl3 200  ARG200      0.1354
@<TRIPOS>BOND
     1     4     3    2
     2   136   135    2
     3   142   141    1
     4   135   134    1
     5   137   134    1
     6   137   138    1
     7   139   140    1
     8   139   138    1
     9    10     9    1
    10     3     2    1
    11    11     9    1
    12   141   140    2
    13   141   143    1
    14    51    52    2
    15    51    50    1
    16   134   133    1
    17     9     8    2
    18     1     2    1
    19    50    53    1
    20    50    49    1
    21     6     7    1
    22     6     5    1
    23     2     5    1
    24     8     7    1
    25    18    17    2
    26   129   128    2
    27    43    44    1
    28    43    40    1
    29    53    54    1
    30    46    44   ar
    31    46    48   ar
    32    54    55   ar
    33    54    56   ar
    34    44    45   ar
    35    12    13    1
    36    13    16    1
    37    13    14    1
    38    17    19   am
    39    17    16    1
    40    38    36    1
    41    40    41    1
    42    40    39    1
    43   128   127    1
    44    48    47   ar
    45    45    47   ar
    46    41    42    2
    47   132   130    1
    48    14    15    2
    49   130   127    1
    50   130   131    1
    51   127   126    1
    52    36    33    1
    53    36    37    1
    54    33    34    1
    55    33    32    1
    56   121   120    2
    57    34    35    2
    58    99    98   ar
    59    99    97   ar
    60    98    96   ar
    61    31    30    1
    62    20    21    1
    63   120   119    1
    64    29    30   ar
    65    29    27   ar
    66   125   123   am
    67    30    28   ar
    68    21    22    1
    69    21    24    1
    70    93    92    2
    71    27    25   ar
    72    28    26   ar
    73    97    95   ar
    74    22    23    2
    75    96    95   ar
    76   118   119    1
    77    25    26   ar
    78    25    24    1
    79   119   122    1
    80   122   123    1
    81   123   124    2
    82    95    94    1
    83    90    91    1
    84    89    88    1
    85   110   109    2
    86    92    91    1
    87    85    84    2
    88    91    94    1
    89   103   102    2
    90    57    58    1
    91    58    61    1
    92    58    59    1
    93   109   108    1
    94   100   101    1
    95    88    87    1
    96    84    83    1
    97    86    87    1
    98    86    83    1
    99    61    62    1
   100   104   106    1
   101   104   101    1
   102   104   105    1
   103    71    73   ar
   104    71    69   ar
   105   102   101    1
   106    59    60    2
   107   116   115    1
   108   107   108    1
   109    73    72   ar
   110    83    82    1
   111   108   111    1
   112    69    68   ar
   113   115   117    1
   114   115   114    2
   115   111   112    1
   116   112   113    1
   117    72    70   ar
   118   114   113    1
   119    68    70   ar
   120    68    67    1
   121    80    79    1
   122    67    64    1
   123    64    65    1
   124    64    63    1
   125    65    66    2
   126    79    78    1
   127    79    81    1
   128    78    75    1
   129    77    76    2
   130    75    76    1
   131    75    74    1
