@<TRIPOS>MOLECULE
tmp/2iuxA02.pdb
 115 112 0 0 0
SMALL
GASTEIGER

@<TRIPOS>ATOM
      1  N         37.5640   30.0900   34.1720 N.3   242  GLN242     -0.1245
      2  CA        38.0620   31.4570   34.3400 C.3   242  GLN242      0.1566
      3  C         39.5180   31.6160   33.8880 C.2   242  GLN242      0.2260
      4  O         39.9650   32.7230   33.5660 O.2   242  GLN242     -0.2867
      5  CB        37.9180   31.9100   35.7970 C.3   242  GLN242      0.0367
      6  CG        38.7500   31.1260   36.7590 C.3   242  GLN242      0.0905
      7  CD        38.4720   31.5060   38.1920 C.2   242  GLN242      0.2608
      8  OE1       37.3370   31.4160   38.6630 O.2   242  GLN242     -0.2717
      9  NE2       39.5120   31.9330   38.9000 N.am  242  GLN242     -0.0878
     10  N         39.8460   27.8730   50.4140 N.3   314  HIS314     -0.1226
     11  CA        40.1980   28.9760   49.5440 C.3   314  HIS314      0.1752
     12  C         41.2190   29.9550   50.0860 C.2   314  HIS314      0.2595
     13  O         41.1060   30.4370   51.2150 O.2   314  HIS314     -0.2718
     14  CB        38.9740   29.7450   49.1380 C.3   314  HIS314      0.0759
     15  CG        39.1580   30.4720   47.8520 C.ar  314  HIS314      0.0818
     16  ND1       38.2270   31.3560   47.3540 N.ar  314  HIS314     -0.2268
     17  CD2       40.1550   30.4200   46.9390 C.ar  314  HIS314      0.1154
     18  CE1       38.6400   31.8170   46.1880 C.ar  314  HIS314      0.1986
     19  NE2       39.8080   31.2650   45.9130 N.ar  314  HIS314     -0.2212
     20  N         42.1960   30.2690   49.2400 N.am  315  ALA315     -0.1980
     21  CA        43.2970   31.1610   49.5740 C.3   315  ALA315      0.1597
     22  C         42.8760   32.5550   50.0200 C.2   315  ALA315      0.2287
     23  O         41.9740   33.1610   49.4410 O.2   315  ALA315     -0.2864
     24  CB        44.2480   31.2650   48.3740 C.3   315  ALA315      0.0319
     25  N         49.6230   31.5460   43.0740 N.3   341  VAL341     -0.1245
     26  CA        48.6370   31.9800   44.0480 C.3   341  VAL341      0.1561
     27  C         49.3390   32.2990   45.3640 C.2   341  VAL341      0.2260
     28  O         48.9150   33.1940   46.0900 O.2   341  VAL341     -0.2867
     29  CB        47.5680   30.9040   44.3050 C.3   341  VAL341      0.0252
     30  CG1       46.6450   31.3560   45.4390 C.3   341  VAL341      0.0019
     31  CG2       46.7640   30.6370   43.0310 C.3   341  VAL341      0.0019
     32  N         50.5840   35.7020   45.0280 N.3   344  HIS344     -0.1226
     33  CA        49.4380   36.5810   45.0530 C.3   344  HIS344      0.1752
     34  C         49.1230   36.9020   46.4990 C.2   344  HIS344      0.2595
     35  O         49.0010   38.0700   46.8570 O.2   344  HIS344     -0.2718
     36  CB        48.2350   35.8960   44.4140 C.3   344  HIS344      0.0759
     37  CG        46.9640   36.6640   44.5590 C.ar  344  HIS344      0.0818
     38  ND1       46.6020   37.6760   43.6960 N.ar  344  HIS344     -0.2268
     39  CD2       45.9980   36.6100   45.5060 C.ar  344  HIS344      0.1154
     40  CE1       45.4660   38.2140   44.1050 C.ar  344  HIS344      0.1986
     41  NE2       45.0800   37.5860   45.2010 N.ar  344  HIS344     -0.2212
     42  N         48.9960   35.8610   47.3240 N.am  345  GLU345     -0.1979
     43  CA        48.6980   36.0330   48.7430 C.3   345  GLU345      0.1602
     44  C         49.8350   36.7470   49.4680 C.2   345  GLU345      0.2287
     45  O         49.5820   37.5490   50.3690 O.2   345  GLU345     -0.2864
     46  CB        48.4460   34.6890   49.4300 C.3   345  GLU345      0.0415
     47  CG        47.2110   33.9270   48.9660 C.3   345  GLU345      0.1163
     48  CD        45.9250   34.7190   49.1000 C.2   345  GLU345      0.3649
     49  OE1       45.7980   35.4870   50.0740 O.co2 345  GLU345     -0.2457
     50  OE2       45.0350   34.5600   48.2360 O.co2 345  GLU345     -0.2457
     51  N         40.9010   35.1770   31.5950 N.3   417  PHE417     -0.1241
     52  CA        40.3040   35.6840   32.8200 C.3   417  PHE417      0.1605
     53  C         39.5920   37.0280   32.7140 C.2   417  PHE417      0.2264
     54  O         38.6820   37.3040   33.4940 O.2   417  PHE417     -0.2867
     55  CB        41.3660   35.7880   33.8980 C.3   417  PHE417      0.0534
     56  CG        40.8180   36.1170   35.2490 C.ar  417  PHE417     -0.0203
     57  CD1       40.0190   35.1980   35.9270 C.ar  417  PHE417     -0.0042
     58  CD2       41.0980   37.3360   35.8550 C.ar  417  PHE417     -0.0042
     59  CE1       39.5240   35.4860   37.1850 C.ar  417  PHE417     -0.0003
     60  CE2       40.6000   37.6280   37.1130 C.ar  417  PHE417     -0.0003
     61  CZ        39.8100   36.7000   37.7770 C.ar  417  PHE417     -0.0000
     62  N         30.5570   29.4230   42.7180 N.3   471  LYS471     -0.1245
     63  CA        31.7790   30.2150   42.6780 C.3   471  LYS471      0.1561
     64  C         31.9460   30.8240   44.0610 C.2   471  LYS471      0.2260
     65  O         31.0290   31.4610   44.5860 O.2   471  LYS471     -0.2867
     66  CB        31.6480   31.3110   41.6160 C.3   471  LYS471      0.0271
     67  CG        32.8120   32.2790   41.5260 C.3   471  LYS471      0.0035
     68  CD        34.1230   31.5630   41.2690 C.3   471  LYS471      0.0206
     69  CE        35.2770   32.5460   41.2310 C.3   471  LYS471      0.1093
     70  NZ        36.5730   31.8470   41.0860 N.3   471  LYS471     -0.1314
     71  N         33.4480   33.4850   45.6640 N.3   473  HIS473     -0.1241
     72  CA        33.1000   34.8800   45.8970 C.3   473  HIS473      0.1621
     73  C         31.6140   35.2220   46.0130 C.2   473  HIS473      0.2264
     74  O         31.2670   36.2710   46.5480 O.2   473  HIS473     -0.2867
     75  CB        33.7780   35.7380   44.8190 C.3   473  HIS473      0.0745
     76  CG        35.2520   35.4890   44.7150 C.ar  473  HIS473      0.0817
     77  ND1       35.7730   34.3380   44.1600 N.ar  473  HIS473     -0.2268
     78  CD2       36.3080   36.1770   45.2110 C.ar  473  HIS473      0.1154
     79  CE1       37.0830   34.3250   44.3290 C.ar  473  HIS473      0.1986
     80  NE2       37.4340   35.4280   44.9650 N.ar  473  HIS473     -0.2212
     81  N         33.9470   41.0060   43.2790 N.3   480  TYR480     -0.1241
     82  CA        34.8170   40.3980   42.2820 C.3   480  TYR480      0.1605
     83  C         35.5410   41.3370   41.3310 C.2   480  TYR480      0.2264
     84  O         36.6670   41.0440   40.9110 O.2   480  TYR480     -0.2867
     85  CB        34.0360   39.4100   41.4320 C.3   480  TYR480      0.0534
     86  CG        34.8920   38.2770   40.9340 C.ar  480  TYR480     -0.0201
     87  CD1       35.2500   37.2370   41.7950 C.ar  480  TYR480     -0.0009
     88  CD2       35.3580   38.2420   39.6180 C.ar  480  TYR480     -0.0009
     89  CE1       36.0420   36.1910   41.3730 C.ar  480  TYR480      0.0417
     90  CE2       36.1650   37.1860   39.1770 C.ar  480  TYR480      0.0417
     91  CZ        36.4980   36.1620   40.0700 C.ar  480  TYR480      0.1957
     92  OH        37.2730   35.0890   39.6870 O.3   480  TYR480     -0.2866
     93  N         39.3890   41.9930   40.8260 N.3   483  TYR483     -0.1241
     94  CA        40.2970   41.1280   40.0910 C.3   483  TYR483      0.1605
     95  C         40.4340   41.5650   38.6420 C.2   483  TYR483      0.2264
     96  O         41.4830   41.3740   38.0220 O.2   483  TYR483     -0.2867
     97  CB        39.8050   39.6850   40.1450 C.3   483  TYR483      0.0534
     98  CG        39.6910   39.1430   41.5410 C.ar  483  TYR483     -0.0201
     99  CD1       38.4680   39.1260   42.1990 C.ar  483  TYR483     -0.0009
    100  CD2       40.8170   38.6630   42.2230 C.ar  483  TYR483     -0.0009
    101  CE1       38.3600   38.6410   43.5040 C.ar  483  TYR483      0.0417
    102  CE2       40.7200   38.1780   43.5290 C.ar  483  TYR483      0.0417
    103  CZ        39.4850   38.1710   44.1550 C.ar  483  TYR483      0.1957
    104  OH        39.3470   37.6730   45.4200 O.3   483  TYR483     -0.2866
    105  N         44.0170   42.5000   37.0350 N.3   487  PHE487     -0.1241
    106  CA        44.6240   42.0140   35.7940 C.3   487  PHE487      0.1605
    107  C         45.0130   43.0820   34.7760 C.2   487  PHE487      0.2264
    108  O         45.9380   42.8810   33.9770 O.2   487  PHE487     -0.2867
    109  CB        43.7140   40.9700   35.1370 C.3   487  PHE487      0.0534
    110  CG        43.9020   39.5920   35.6910 C.ar  487  PHE487     -0.0203
    111  CD1       43.8620   39.3720   37.0690 C.ar  487  PHE487     -0.0042
    112  CD2       44.1880   38.5180   34.8480 C.ar  487  PHE487     -0.0042
    113  CE1       44.1130   38.0990   37.5980 C.ar  487  PHE487     -0.0003
    114  CE2       44.4380   37.2450   35.3640 C.ar  487  PHE487     -0.0003
    115  CZ        44.4030   37.0340   36.7400 C.ar  487  PHE487     -0.0000
@<TRIPOS>BOND
     1    51    52    1
     2    53    52    1
     3    53    54    2
     4    52    55    1
     5     4     3    2
     6     3     2    1
     7    55    56    1
     8   108   107    2
     9     1     2    1
    10     2     5    1
    11   107   106    1
    12   112   114   ar
    13   112   110   ar
    14   109   110    1
    15   109   106    1
    16    56    58   ar
    17    56    57   ar
    18   114   115   ar
    19   110   111   ar
    20   106   105    1
    21     5     6    1
    22    58    60   ar
    23    57    59   ar
    24   115   113   ar
    25     6     7    1
    26   111   113   ar
    27    60    61   ar
    28    59    61   ar
    29    96    95    2
    30     7     8    2
    31     7     9   am
    32    95    94    1
    33    90    88   ar
    34    90    91   ar
    35    88    86   ar
    36    92    91    1
    37    91    89   ar
    38    94    97    1
    39    94    93    1
    40    97    98    1
    41    84    83    2
    42    86    85    1
    43    86    87   ar
    44    70    69    1
    45    69    68    1
    46    68    67    1
    47    83    82    1
    48    89    87   ar
    49    85    82    1
    50    67    66    1
    51    98    99   ar
    52    98   100   ar
    53    66    63    1
    54    99   101   ar
    55   100   102   ar
    56    82    81    1
    57    63    62    1
    58    63    64    1
    59    31    29    1
    60    25    26    1
    61   101   103   ar
    62   102   103   ar
    63    38    40   ar
    64    38    37   ar
    65    26    29    1
    66    26    27    1
    67    64    65    2
    68    40    41   ar
    69   103   104    1
    70    77    79   ar
    71    77    76   ar
    72    29    30    1
    73    79    80   ar
    74    36    37    1
    75    36    33    1
    76    37    39   ar
    77    76    75    1
    78    76    78   ar
    79    75    72    1
    80    80    78   ar
    81    32    33    1
    82    33    34    1
    83    41    39   ar
    84    27    28    2
    85    71    72    1
    86    72    73    1
    87    19    18   ar
    88    19    17   ar
    89    73    74    2
    90    18    16   ar
    91    34    35    2
    92    34    42   am
    93    17    15   ar
    94    42    43    1
    95    16    15   ar
    96    15    14    1
    97    50    48   ar
    98    24    21    1
    99    43    46    1
   100    43    44    1
   101    47    48    1
   102    47    46    1
   103    48    49   ar
   104    14    11    1
   105    20    21    1
   106    20    12   am
   107    23    22    2
   108    44    45    2
   109    11    12    1
   110    11    10    1
   111    21    22    1
   112    12    13    2
