@<TRIPOS>MOLECULE
tmp/2iv3C00.pdb
 184 181 0 0 0
SMALL
GASTEIGER

@<TRIPOS>ATOM
      1  N        -15.6520  -27.4380  -11.0650 N.3    26  GLY26      -0.1210
      2  CA       -15.8490  -28.2710  -12.2520 C.3    26  GLY26       0.1956
      3  C        -14.5560  -28.1520  -13.0450 C.2    26  GLY26       0.2612
      4  O        -13.4940  -28.3190  -12.4820 O.2    26  GLY26      -0.2717
      5  N        -14.6280  -27.8220  -14.3330 N.am   27  TYR27      -0.1962
      6  CA       -13.4450  -27.6990  -15.1890 C.3    27  TYR27       0.1771
      7  C        -12.3470  -26.7420  -14.6900 C.2    27  TYR27       0.2620
      8  O        -12.6200  -25.6110  -14.3520 O.2    27  TYR27      -0.2715
      9  CB       -13.8820  -27.2710  -16.5920 C.3    27  TYR27       0.0574
     10  CG       -12.7440  -26.9990  -17.5350 C.ar   27  TYR27      -0.0198
     11  CD1      -12.0530  -28.0270  -18.1610 C.ar   27  TYR27      -0.0009
     12  CD2      -12.3660  -25.7040  -17.8070 C.ar   27  TYR27      -0.0009
     13  CE1      -10.9980  -27.7450  -19.0460 C.ar   27  TYR27       0.0417
     14  CE2      -11.3370  -25.4170  -18.6500 C.ar   27  TYR27       0.0417
     15  CZ       -10.6530  -26.4220  -19.2680 C.ar   27  TYR27       0.1957
     16  OH        -9.6070  -26.0540  -20.1060 O.3    27  TYR27      -0.2866
     17  N        -11.0990  -27.1980  -14.6740 N.am   28  GLY28      -0.1940
     18  CA        -9.9610  -26.3250  -14.4310 C.3    28  GLY28       0.2014
     19  C         -8.7700  -27.1630  -14.0390 C.2    28  GLY28       0.2639
     20  O         -8.7740  -27.7970  -12.9730 O.2    28  GLY28      -0.2714
     21  N         -7.7330  -27.1540  -14.8770 N.am   29  GLY29      -0.1939
     22  CA        -6.5760  -28.0290  -14.7160 C.3    29  GLY29       0.2014
     23  C         -5.4750  -27.5480  -13.8320 C.2    29  GLY29       0.2638
     24  O         -4.8640  -28.3220  -13.0790 O.2    29  GLY29      -0.2714
     25  N         -5.1920  -26.2570  -13.9230 N.am   30  ILE30      -0.1977
     26  CA        -4.1940  -25.6350  -13.0900 C.3    30  ILE30       0.1596
     27  C         -4.6310  -25.7030  -11.6260 C.2    30  ILE30       0.2287
     28  O         -3.8160  -25.9180  -10.7320 O.2    30  ILE30      -0.2864
     29  CB        -3.9360  -24.1780  -13.5590 C.3    30  ILE30       0.0276
     30  CG1       -3.4270  -24.1900  -15.0090 C.3    30  ILE30       0.0022
     31  CG2       -2.9190  -23.4580  -12.6310 C.3    30  ILE30       0.0022
     32  CD1       -3.5080  -22.8590  -15.7720 C.3    30  ILE30       0.0001
     33  N         -6.3690  -27.8160  -10.1130 N.3    32  TRP32      -0.1241
     34  CA        -6.1440  -29.1590   -9.6420 C.3    32  TRP32       0.1605
     35  C         -4.6740  -29.4540   -9.4060 C.2    32  TRP32       0.2264
     36  O         -4.3340  -30.1400   -8.4200 O.2    32  TRP32      -0.2867
     37  CB        -6.7650  -30.1870  -10.5890 C.3    32  TRP32       0.0550
     38  CG        -8.1230  -30.6180  -10.1500 C.ar   32  TRP32       0.0003
     39  CD1       -9.2810  -30.4530  -10.8310 C.ar   32  TRP32       0.0946
     40  CD2       -8.4720  -31.3030   -8.9220 C.ar   32  TRP32       0.0152
     41  NE1      -10.3360  -30.9590  -10.1130 N.ar   32  TRP32      -0.2442
     42  CE2       -9.8680  -31.4910   -8.9390 C.ar   32  TRP32       0.0810
     43  CE3       -7.7420  -31.7420   -7.8060 C.ar   32  TRP32       0.0012
     44  CZ2      -10.5590  -32.1060   -7.8860 C.ar   32  TRP32       0.0191
     45  CZ3       -8.4230  -32.3650   -6.7610 C.ar   32  TRP32       0.0001
     46  CH2       -9.8250  -32.5470   -6.8190 C.ar   32  TRP32       0.0015
     47  N        -12.8420  -36.3150  -20.6830 N.3   166  MET166     -0.1230
     48  CA       -12.9490  -35.3930  -19.5500 C.3   166  MET166      0.1705
     49  C        -12.2170  -34.0860  -19.8870 C.2   166  MET166      0.2632
     50  O        -11.0410  -33.9420  -19.5860 O.2   166  MET166     -0.2714
     51  CB       -12.3650  -36.0940  -18.3060 C.3   166  MET166      0.0401
     52  CG       -12.3870  -35.2930  -16.9460 C.3   166  MET166      0.0596
     53  SD       -14.0460  -34.9700  -16.3320 S.3   166  MET166     -0.1393
     54  CE       -14.7660  -36.6080  -16.2300 C.3   166  MET166      0.0692
     55  N        -12.8800  -33.1340  -20.5370 N.am  167  GLY167     -0.1718
     56  CA       -12.1640  -31.9180  -20.9450 C.2   167  GLY167      0.1480
     57  C        -12.9810  -30.8720  -21.6850 C.2   167  GLY167      0.2820
     58  O        -14.1820  -31.0640  -21.9340 O.2   167  GLY167     -0.2669
     59  N        -12.3400  -29.7660  -22.0500 N.am  168  ARG168     -0.1943
     60  CA       -12.9930  -28.7800  -22.9330 C.3   168  ARG168      0.1600
     61  C        -13.2830  -29.4370  -24.2980 C.2   168  ARG168      0.2287
     62  O        -12.3710  -29.8610  -24.9870 O.2   168  ARG168     -0.2864
     63  CB       -12.1430  -27.5100  -23.1050 C.3   168  ARG168      0.0334
     64  CG       -12.6560  -26.2870  -22.3190 C.3   168  ARG168      0.0492
     65  CD       -12.4610  -24.8970  -23.0430 C.3   168  ARG168      0.2205
     66  NE       -11.0520  -24.4460  -23.1160 N.pl3 168  ARG168     -0.0865
     67  CZ       -10.4240  -24.1180  -24.2520 C.cat 168  ARG168      0.5346
     68  NH1      -11.0720  -24.1850  -25.4230 N.pl3 168  ARG168      0.1354
     69  NH2       -9.1400  -23.7070  -24.2250 N.pl3 168  ARG168      0.1354
     70  N         -8.6430  -29.0780  -30.2850 N.3   172  HIS172     -0.1226
     71  CA        -7.2770  -29.4200  -29.9190 C.3   172  HIS172      0.1752
     72  C         -7.2510  -30.4470  -28.7910 C.2   172  HIS172      0.2595
     73  O         -6.2570  -31.0710  -28.5740 O.2   172  HIS172     -0.2718
     74  CB        -6.4690  -28.1590  -29.5590 C.3   172  HIS172      0.0759
     75  CG        -6.9710  -27.4370  -28.3390 C.ar  172  HIS172      0.0818
     76  ND1       -8.0770  -26.6160  -28.3590 N.ar  172  HIS172     -0.2268
     77  CD2       -6.5070  -27.4050  -27.0650 C.ar  172  HIS172      0.1154
     78  CE1       -8.2810  -26.1150  -27.1540 C.ar  172  HIS172      0.1986
     79  NE2       -7.3430  -26.5820  -26.3480 N.ar  172  HIS172     -0.2212
     80  N         -8.3590  -30.6150  -28.0760 N.am  173  LYS173     -0.1980
     81  CA        -8.4950  -31.6960  -27.0930 C.3   173  LYS173      0.1596
     82  C         -9.0270  -32.9590  -27.7590 C.2   173  LYS173      0.2287
     83  O         -9.1360  -34.0010  -27.1360 O.2   173  LYS173     -0.2864
     84  CB        -9.4530  -31.2650  -25.9880 C.3   173  LYS173      0.0298
     85  CG        -9.2420  -29.8540  -25.5530 C.3   173  LYS173      0.0038
     86  CD        -7.8080  -29.7110  -25.0110 C.3   173  LYS173      0.0206
     87  CE        -7.6390  -30.3070  -23.6430 C.3   173  LYS173      0.1093
     88  NZ        -6.1380  -30.3710  -23.3410 N.3   173  LYS173     -0.1314
     89  N        -17.4820  -32.3870  -20.0000 N.3   193  GLY193     -0.1210
     90  CA       -16.7910  -31.1360  -20.1830 C.3   193  GLY193      0.1940
     91  C        -17.6780  -30.0300  -20.7190 C.2   193  GLY193      0.2453
     92  O        -18.7900  -30.2990  -21.2320 O.2   193  GLY193     -0.2732
     93  N        -17.2100  -28.7720  -20.5620 N.am  194  PRO194     -0.2728
     94  CA       -17.8630  -27.6230  -21.2060 C.3   194  PRO194      0.1401
     95  C        -17.7160  -27.7220  -22.7210 C.2   194  PRO194      0.2269
     96  O        -16.6200  -27.9690  -23.2210 O.2   194  PRO194     -0.2865
     97  CB       -17.1130  -26.4180  -20.6420 C.3   194  PRO194      0.0296
     98  CG       -15.8000  -26.9600  -20.1340 C.3   194  PRO194      0.0237
     99  CD       -16.0400  -28.3780  -19.7460 C.3   194  PRO194      0.0939
    100  N        -20.5660  -30.1430  -18.2300 N.3   217  GLU217     -0.1231
    101  CA       -19.4250  -30.0230  -17.3470 C.3   217  GLU217      0.1699
    102  C        -19.7560  -30.6730  -16.0160 C.2   217  GLU217      0.2592
    103  O        -20.8880  -30.5470  -15.5320 O.2   217  GLU217     -0.2718
    104  CB       -19.0470  -28.5470  -17.1520 C.3   217  GLU217      0.0402
    105  CG       -18.2840  -28.2600  -15.8710 C.3   217  GLU217      0.1161
    106  CD       -17.7900  -26.8420  -15.7940 C.2   217  GLU217      0.3649
    107  OE1      -18.4350  -25.9510  -16.3770 O.co2 217  GLU217     -0.2457
    108  OE2      -16.7280  -26.6170  -15.1700 O.co2 217  GLU217     -0.2457
    109  N        -18.7440  -31.3270  -15.4180 N.am  218  VAL218     -0.1980
    110  CA       -18.9260  -32.0920  -14.1630 C.3   218  VAL218      0.1595
    111  C        -17.8760  -31.8370  -13.1020 C.2   218  VAL218      0.2287
    112  O        -16.7640  -31.3240  -13.3790 O.2   218  VAL218     -0.2864
    113  CB       -19.0360  -33.6740  -14.3820 C.3   218  VAL218      0.0276
    114  CG1      -20.2530  -34.0500  -15.2310 C.3   218  VAL218      0.0022
    115  CG2      -17.7640  -34.2670  -14.9500 C.3   218  VAL218      0.0022
    116  N        -17.6480  -36.4930  -10.9290 N.3   223  ARG223     -0.1245
    117  CA       -16.3540  -36.4740  -11.6390 C.3   223  ARG223      0.1563
    118  C        -15.5190  -37.6900  -11.2070 C.2   223  ARG223      0.2260
    119  O        -15.1010  -38.4950  -12.0230 O.2   223  ARG223     -0.2867
    120  CB       -15.6070  -35.1560  -11.3830 C.3   223  ARG223      0.0307
    121  CG       -14.3240  -34.9100  -12.1930 C.3   223  ARG223      0.0489
    122  CD       -13.6100  -33.6860  -11.6360 C.3   223  ARG223      0.2205
    123  NE       -12.1850  -33.6060  -11.9510 N.pl3 223  ARG223     -0.0865
    124  CZ       -11.1870  -33.9630  -11.1270 C.cat 223  ARG223      0.5346
    125  NH1      -11.4160  -34.4410   -9.9000 N.pl3 223  ARG223      0.1354
    126  NH2       -9.9380  -33.8350  -11.5290 N.pl3 223  ARG223      0.1354
    127  N         -0.7640  -26.5520  -31.3800 N.3   248  TRP248     -0.1241
    128  CA        -1.1410  -27.0160  -30.0870 C.3   248  TRP248      0.1605
    129  C         -0.1520  -28.0910  -29.6090 C.2   248  TRP248      0.2264
    130  O          0.1450  -29.0330  -30.3240 O.2   248  TRP248     -0.2867
    131  CB        -2.5790  -27.5550  -30.1050 C.3   248  TRP248      0.0550
    132  CG        -2.8910  -28.0850  -28.7990 C.ar  248  TRP248      0.0003
    133  CD1       -2.9390  -29.4060  -28.4250 C.ar  248  TRP248      0.0946
    134  CD2       -3.0840  -27.3220  -27.6000 C.ar  248  TRP248      0.0152
    135  NE1       -3.1980  -29.5020  -27.0810 N.ar  248  TRP248     -0.2442
    136  CE2       -3.2820  -28.2470  -26.5450 C.ar  248  TRP248      0.0810
    137  CE3       -3.1260  -25.9530  -27.3180 C.ar  248  TRP248      0.0012
    138  CZ2       -3.5500  -27.8440  -25.2490 C.ar  248  TRP248      0.0191
    139  CZ3       -3.4140  -25.5570  -26.0380 C.ar  248  TRP248      0.0001
    140  CH2       -3.6050  -26.5010  -25.0080 C.ar  248  TRP248      0.0015
    141  N          0.2690  -30.2230  -26.1370 N.3   250  GLU250     -0.1231
    142  CA        -0.3690  -30.4340  -24.8440 C.3   250  GLU250      0.1684
    143  C          0.6510  -30.3970  -23.6900 C.2   250  GLU250      0.2434
    144  O          1.5000  -31.2640  -23.6030 O.2   250  GLU250     -0.2733
    145  CB        -1.1250  -31.7480  -24.8720 C.3   250  GLU250      0.0402
    146  CG        -1.9490  -31.9780  -23.6320 C.3   250  GLU250      0.1161
    147  CD        -2.9800  -30.9180  -23.4710 C.2   250  GLU250      0.3649
    148  OE1       -3.8900  -30.8160  -24.3580 O.co2 250  GLU250     -0.2457
    149  OE2       -2.8650  -30.1590  -22.4890 O.co2 250  GLU250     -0.2457
    150  N          0.5820  -29.3630  -22.8360 N.am  251  PRO251     -0.2729
    151  CA         1.5870  -29.0980  -21.7810 C.3   251  PRO251      0.1401
    152  C          1.8680  -30.2330  -20.7860 C.2   251  PRO251      0.2269
    153  O          3.0230  -30.6670  -20.6420 O.2   251  PRO251     -0.2865
    154  CB         1.0260  -27.8790  -21.0410 C.3   251  PRO251      0.0296
    155  CG         0.1130  -27.2340  -22.0100 C.3   251  PRO251      0.0237
    156  CD        -0.4530  -28.3170  -22.8840 C.3   251  PRO251      0.0939
    157  N         -1.3350  -32.2500  -19.4560 N.3   253  ALA253     -0.1231
    158  CA        -2.4370  -33.1810  -19.6650 C.3   253  ALA253      0.1694
    159  C         -2.8850  -33.7120  -18.3240 C.2   253  ALA253      0.2593
    160  O         -2.5820  -34.8370  -17.9150 O.2   253  ALA253     -0.2718
    161  CB        -2.0350  -34.3030  -20.6250 C.3   253  ALA253      0.0304
    162  N         -3.5990  -32.8870  -17.5900 N.am  254  THR254     -0.1939
    163  CA        -3.7890  -33.2480  -16.2170 C.3   254  THR254      0.2028
    164  C         -4.6790  -34.4900  -16.1250 C.2   254  THR254      0.2642
    165  O         -4.6050  -35.2450  -15.1720 O.2   254  THR254     -0.2714
    166  CB        -4.1080  -31.9670  -15.3010 C.3   254  THR254      0.1808
    167  OG1       -5.0440  -32.2560  -14.2420 O.3   254  THR254     -0.2208
    168  CG2       -4.5950  -30.8560  -16.1000 C.3   254  THR254      0.0379
    169  N         -5.4390  -34.7900  -17.1650 N.am  255  VAL255     -0.1977
    170  CA        -6.4540  -35.7940  -16.9870 C.3   255  VAL255      0.1596
    171  C         -5.8760  -37.2100  -16.8430 C.2   255  VAL255      0.2287
    172  O         -6.5020  -38.0970  -16.2800 O.2   255  VAL255     -0.2864
    173  CB        -7.5750  -35.6890  -18.0370 C.3   255  VAL255      0.0276
    174  CG1       -7.1040  -36.2000  -19.4760 C.3   255  VAL255      0.0022
    175  CG2       -8.7570  -36.4600  -17.5460 C.3   255  VAL255      0.0022
    176  N         -5.1150  -38.1740  -13.1080 N.3   258  GLU258     -0.1245
    177  CA        -6.4660  -38.3920  -12.5750 C.3   258  GLU258      0.1567
    178  C         -7.0430  -39.7440  -12.9600 C.2   258  GLU258      0.2260
    179  O         -7.5430  -40.4700  -12.0980 O.2   258  GLU258     -0.2867
    180  CB        -7.4020  -37.3020  -13.0810 C.3   258  GLU258      0.0388
    181  CG        -6.9100  -35.9520  -12.7240 C.3   258  GLU258      0.1160
    182  CD        -7.7090  -34.8590  -13.3520 C.2   258  GLU258      0.3649
    183  OE1       -8.6160  -35.1670  -14.1560 O.co2 258  GLU258     -0.2457
    184  OE2       -7.4160  -33.6860  -13.0190 O.co2 258  GLU258     -0.2457
@<TRIPOS>BOND
     1   127   128    1
     2   130   129    2
     3    70    71    1
     4   131   128    1
     5   131   132    1
     6   128   129    1
     7    71    74    1
     8    71    72    1
     9    74    75    1
    10   132   133   ar
    11   132   134   ar
    12    72    73    2
    13    72    80   am
    14   133   135   ar
    15    76    75   ar
    16    76    78   ar
    17    75    77   ar
    18    80    81    1
    19    82    83    2
    20    82    81    1
    21   134   137   ar
    22   134   136   ar
    23   137   139   ar
    24    78    79   ar
    25    81    84    1
    26   135   136   ar
    27    77    79   ar
    28   136   138   ar
    29   141   142    1
    30   139   140   ar
    31    84    85    1
    32    85    86    1
    33    68    67    1
    34   138   140   ar
    35    86    87    1
    36    62    61    2
    37   145   142    1
    38   145   146    1
    39   142   143    1
    40   148   147   ar
    41    61    60    1
    42    67    69    1
    43    67    66    2
    44   143   144    2
    45   143   150   am
    46    87    88    1
    47   146   147    1
    48   147   149   ar
    49    96    95    2
    50    66    65    1
    51    63    60    1
    52    63    64    1
    53    65    64    1
    54    60    59    1
    55   156   150    1
    56   156   155    1
    57   150   151    1
    58    95    94    1
    59    59    57   am
    60   155   154    1
    61    58    57    2
    62   151   154    1
    63   151   152    1
    64    57    56    1
    65    92    91    2
    66    94    97    1
    67    94    93    1
    68    56    55    2
    69   152   153    2
    70    91    93   am
    71    91    90    1
    72    47    48    1
    73    97    98    1
    74   161   158    1
    75    93    99    1
    76    55    49    1
    77    90    89    1
    78    98    99    1
    79    16    15    1
    80    49    50    2
    81    49    48    1
    82   158   157    1
    83   158   159    1
    84    48    51    1
    85   174   173    1
    86    15    13   ar
    87    15    14   ar
    88    13    11   ar
    89    14    12   ar
    90   159   160    2
    91   159   162   am
    92    51    52    1
    93   100   101    1
    94    11    10   ar
    95   173   175    1
    96   173   170    1
    97    12    10   ar
    98   162   163    1
    99    10     9    1
   100   101   104    1
   101   101   102    1
   102   169   170    1
   103   169   164   am
   104   104   105    1
   105   170   171    1
   106    52    53    1
   107   171   172    2
   108     9     6    1
   109   107   106   ar
   110    53    54    1
   111   163   164    1
   112   163   166    1
   113   164   165    2
   114   168   166    1
   115   102   103    2
   116   102   109   am
   117   105   106    1
   118   106   108   ar
   119    32    30    1
   120   109   110    1
   121   166   167    1
   122   114   113    1
   123     6     7    1
   124     6     5    1
   125    30    29    1
   126   115   113    1
   127    21    22    1
   128    21    19   am
   129    22    23    1
   130     7    17   am
   131     7     8    2
   132    17    18    1
   133    18    19    1
   134   113   110    1
   135     5     3   am
   136   110   111    1
   137   183   182   ar
   138    19    20    2
   139    25    23   am
   140    25    26    1
   141    23    24    2
   142    29    26    1
   143    29    31    1
   144   112   111    2
   145   182   184   ar
   146   182   181    1
   147   176   177    1
   148    26    27    1
   149   180   181    1
   150   180   177    1
   151     3     4    2
   152     3     2    1
   153   178   177    1
   154   178   179    2
   155     2     1    1
   156   121   122    1
   157   121   120    1
   158   119   118    2
   159   123   122    1
   160   123   124    2
   161   117   120    1
   162   117   118    1
   163   117   116    1
   164    27    28    2
   165   126   124    1
   166   124   125    1
   167    39    38   ar
   168    39    41   ar
   169    37    38    1
   170    37    34    1
   171    38    40   ar
   172    41    42   ar
   173    33    34    1
   174    34    35    1
   175    35    36    2
   176    42    40   ar
   177    42    44   ar
   178    40    43   ar
   179    44    46   ar
   180    43    45   ar
   181    46    45   ar
