@<TRIPOS>MOLECULE
tmp/2iv7A00.pdb
 181 171 0 0 0
SMALL
GASTEIGER

@<TRIPOS>ATOM
      1  N          3.1770    6.9320  -17.0310 N.3    11  PRO11      -0.2102
      2  CA         2.0980    6.1770  -17.6680 C.3    11  PRO11       0.1504
      3  C          0.6600    6.6520  -17.4440 C.2    11  PRO11       0.2576
      4  O         -0.2550    6.1410  -18.1130 O.2    11  PRO11      -0.2718
      5  CB         2.2700    4.7570  -17.0930 C.3    11  PRO11       0.0282
      6  CG         3.6410    4.7560  -16.4590 C.3    11  PRO11       0.0208
      7  CD         3.8540    6.1590  -15.9820 C.3    11  PRO11       0.0893
      8  N          0.4620    7.6020  -16.5360 N.am   12  PHE12      -0.1963
      9  CA        -0.8920    7.9040  -16.0470 C.3    12  PHE12       0.1771
     10  C         -1.4310    9.2660  -16.4420 C.2    12  PHE12       0.2620
     11  O         -2.2180    9.8750  -15.7070 O.2    12  PHE12      -0.2715
     12  CB        -0.9450    7.6950  -14.5310 C.3    12  PHE12       0.0574
     13  CG        -0.3370    6.3890  -14.0970 C.ar   12  PHE12      -0.0200
     14  CD1       -0.8920    5.1790  -14.5200 C.ar   12  PHE12      -0.0042
     15  CD2        0.8060    6.3690  -13.2930 C.ar   12  PHE12      -0.0042
     16  CE1       -0.3340    3.9530  -14.1250 C.ar   12  PHE12      -0.0003
     17  CE2        1.3800    5.1400  -12.9020 C.ar   12  PHE12      -0.0003
     18  CZ         0.7970    3.9330  -13.3200 C.ar   12  PHE12      -0.0000
     19  N         -1.0180    9.7210  -17.6230 N.am   13  GLY13      -0.1940
     20  CA        -1.4660   10.9970  -18.1730 C.3    13  GLY13       0.2014
     21  C         -1.9070   10.8510  -19.6150 C.2    13  GLY13       0.2639
     22  O         -1.3500   10.0370  -20.3610 O.2    13  GLY13      -0.2714
     23  N         -2.9190   11.6310  -20.0090 N.am   14  GLY14      -0.1939
     24  CA        -3.4760   11.5430  -21.3620 C.3    14  GLY14       0.2014
     25  C         -2.4940   11.9590  -22.4400 C.2    14  GLY14       0.2638
     26  O         -2.3510   11.2740  -23.4540 O.2    14  GLY14      -0.2714
     27  N         -1.8460   13.1030  -22.2380 N.am   15  LEU15      -0.1977
     28  CA        -0.8140   13.5630  -23.1720 C.3    15  LEU15       0.1596
     29  C          0.2000   12.4420  -23.4160 C.2    15  LEU15       0.2287
     30  O          0.5660   12.1240  -24.5660 O.2    15  LEU15      -0.2864
     31  CB        -0.1330   14.8070  -22.5880 C.3    15  LEU15       0.0297
     32  CG         1.0190   15.4880  -23.3190 C.3    15  LEU15       0.0022
     33  CD1        1.2540   16.8440  -22.6880 C.3    15  LEU15       0.0001
     34  CD2        2.3040   14.6620  -23.3050 C.3    15  LEU15       0.0001
     35  N         -0.0830    9.1260  -22.8120 N.3    17  ARG17      -0.1245
     36  CA        -0.6290    7.9280  -23.4470 C.3    17  ARG17       0.1563
     37  C         -0.9010    8.1300  -24.9410 C.2    17  ARG17       0.2260
     38  O         -0.7100    7.2060  -25.7470 O.2    17  ARG17      -0.2867
     39  CB        -1.9540    7.4910  -22.7560 C.3    17  ARG17       0.0307
     40  CG        -1.6750    7.0290  -21.3100 C.3    17  ARG17       0.0489
     41  CD        -2.9340    6.6670  -20.5110 C.3    17  ARG17       0.2205
     42  NE        -3.8730    5.8170  -21.2390 N.pl3  17  ARG17      -0.0865
     43  CZ        -3.7150    4.4960  -21.4800 C.cat  17  ARG17       0.5346
     44  NH1       -2.6580    3.8130  -21.0620 N.pl3  17  ARG17       0.1354
     45  NH2       -4.6580    3.8560  -22.1560 N.pl3  17  ARG17       0.1354
     46  N         -2.5700   18.6170  -26.6400 N.3    96  ALA96      -0.1245
     47  CA        -3.1250   17.8820  -25.4940 C.3    96  ALA96       0.1562
     48  C         -3.7290   18.7980  -24.4390 C.2    96  ALA96       0.2260
     49  O         -4.4970   18.3500  -23.5670 O.2    96  ALA96      -0.2867
     50  CB        -2.0670   17.0080  -24.8730 C.3    96  ALA96       0.0290
     51  N         -9.8020   -0.9970  -23.1360 N.3   168  ARG168     -0.1245
     52  CA       -10.8930   -0.5250  -22.2740 C.3   168  ARG168      0.1563
     53  C        -12.2810   -1.0110  -22.6900 C.2   168  ARG168      0.2260
     54  O        -13.2270   -0.9640  -21.8870 O.2   168  ARG168     -0.2867
     55  CB       -10.9240    1.0050  -22.1940 C.3   168  ARG168      0.0307
     56  CG        -9.9410    1.5940  -21.2090 C.3   168  ARG168      0.0489
     57  CD        -8.5500    1.7700  -21.8100 C.3   168  ARG168      0.2205
     58  NE        -7.7650    2.6000  -20.8900 N.pl3 168  ARG168     -0.0865
     59  CZ        -7.0450    2.1560  -19.8570 C.cat 168  ARG168      0.5346
     60  NH1       -6.9200    0.8480  -19.6200 N.pl3 168  ARG168      0.1354
     61  NH2       -6.4240    3.0390  -19.0820 N.pl3 168  ARG168      0.1354
     62  N        -11.2290    8.8070  -12.4080 N.3   197  VAL197     -0.1231
     63  CA        -9.8620    8.4750  -12.8460 C.3   197  VAL197      0.1692
     64  C         -9.2160    9.7120  -13.4560 C.2   197  VAL197      0.2593
     65  O         -9.8110   10.3800  -14.3030 O.2   197  VAL197     -0.2718
     66  CB        -9.8710    7.3440  -13.9060 C.3   197  VAL197      0.0266
     67  CG1       -8.4680    7.1100  -14.4860 C.3   197  VAL197      0.0020
     68  CG2      -10.4180    6.0620  -13.3060 C.3   197  VAL197      0.0020
     69  N         -7.9980   10.0110  -13.0080 N.am  198  GLY198     -0.1942
     70  CA        -7.2360   11.1390  -13.5530 C.3   198  GLY198      0.2014
     71  C         -6.2020   11.6610  -12.5800 C.2   198  GLY198      0.2639
     72  O         -6.4490   11.7480  -11.3820 O.2   198  GLY198     -0.2714
     73  N         -5.0540   12.0590  -13.1140 N.am  199  SER199     -0.1949
     74  CA        -3.9060   12.4300  -12.2830 C.3   199  SER199      0.1924
     75  C         -3.8280   13.9180  -11.9170 C.2   199  SER199      0.2314
     76  O         -2.7420   14.4670  -11.7410 O.2   199  SER199     -0.2863
     77  CB        -2.6070   11.9480  -12.9570 C.3   199  SER199      0.2116
     78  OG        -2.5810   10.5310  -13.0330 O.3   199  SER199     -0.2180
     79  N         -8.0890   19.7670  -10.4770 N.3   203  ARG203     -0.1231
     80  CA        -8.5680   20.2280  -11.7680 C.3   203  ARG203      0.1694
     81  C         -9.7950   19.4200  -12.2040 C.2   203  ARG203      0.2591
     82  O        -10.7240   19.9480  -12.8190 O.2   203  ARG203     -0.2718
     83  CB        -7.4650   20.0910  -12.8040 C.3   203  ARG203      0.0321
     84  CG        -7.9530   20.4420  -14.1810 C.3   203  ARG203      0.0489
     85  CD        -6.8070   20.5910  -15.1520 C.3   203  ARG203      0.2205
     86  NE        -5.9670   19.4020  -15.2980 N.pl3 203  ARG203     -0.0865
     87  CZ        -6.2420   18.3640  -16.0840 C.cat 203  ARG203      0.5346
     88  NH1       -7.3850   18.3150  -16.7720 N.pl3 203  ARG203      0.1354
     89  NH2       -5.3830   17.3610  -16.1620 N.pl3 203  ARG203      0.1354
     90  N         -9.7990   18.1370  -11.8480 N.am  204  LYS204     -0.1980
     91  CA       -10.8340   17.2320  -12.3280 C.3   204  LYS204      0.1596
     92  C        -12.0600   17.1590  -11.4170 C.2   204  LYS204      0.2287
     93  O        -12.9760   16.3920  -11.6720 O.2   204  LYS204     -0.2864
     94  CB       -10.2400   15.8570  -12.6250 C.3   204  LYS204      0.0298
     95  CG        -9.2520   15.9120  -13.8030 C.3   204  LYS204      0.0038
     96  CD        -8.4490   14.6210  -13.8700 C.3   204  LYS204      0.0206
     97  CE        -7.3610   14.7270  -14.9370 C.3   204  LYS204      0.1093
     98  NZ        -7.9620   14.6310  -16.3080 N.3   204  LYS204     -0.1314
     99  N         -8.6860    7.6340   -8.4580 N.3   229  VAL229     -0.1231
    100  CA        -7.4970    6.9520   -8.9590 C.3   229  VAL229      0.1692
    101  C         -6.6510    7.9020   -9.7920 C.2   229  VAL229      0.2592
    102  O         -7.1380    8.4380  -10.7950 O.2   229  VAL229     -0.2718
    103  CB        -7.8970    5.7540   -9.8440 C.3   229  VAL229      0.0266
    104  CG1       -6.6420    5.0880  -10.4210 C.3   229  VAL229      0.0020
    105  CG2       -8.7340    4.7430   -9.0610 C.3   229  VAL229      0.0020
    106  N         -5.3960    8.1050   -9.3880 N.am  230  GLY230     -0.1957
    107  CA        -4.4630    8.8860  -10.2020 C.3   230  GLY230      0.1869
    108  C         -3.1810    9.2180   -9.4830 C.2   230  GLY230      0.2309
    109  O         -3.0970    9.0960   -8.2560 O.2   230  GLY230     -0.2863
    110  N         -1.4220    6.1640   -9.2550 N.3   255  GLY255     -0.1210
    111  CA        -1.6370    5.7340  -10.6450 C.3   255  GLY255      0.1956
    112  C         -1.8610    4.2380  -10.7190 C.2   255  GLY255      0.2612
    113  O         -1.0960    3.4750  -10.1180 O.2   255  GLY255     -0.2717
    114  N         -2.9080    3.8200  -11.4350 N.am  256  ARG256     -0.1965
    115  CA        -3.2160    2.4090  -11.6380 C.3   256  ARG256      0.1729
    116  C         -3.2030    2.0030  -13.1180 C.2   256  ARG256      0.2616
    117  O         -3.6460    2.7610  -13.9820 O.2   256  ARG256     -0.2715
    118  CB        -4.5630    2.0350  -10.9900 C.3   256  ARG256      0.0348
    119  CG        -4.4790    2.0110   -9.4540 C.3   256  ARG256      0.0492
    120  CD        -5.8170    1.7030   -8.7920 C.3   256  ARG256      0.2205
    121  NE        -6.2790    0.3350   -9.0250 N.pl3 256  ARG256     -0.0865
    122  CZ        -7.1640   -0.2990   -8.2590 C.cat 256  ARG256      0.5346
    123  NH1       -7.6900    0.3160   -7.2020 N.pl3 256  ARG256      0.1354
    124  NH2       -7.5250   -1.5410   -8.5460 N.pl3 256  ARG256      0.1354
    125  N         -2.7170    0.7880  -13.3760 N.am  257  ASN257     -0.1972
    126  CA        -2.6500    0.2140  -14.7250 C.3   257  ASN257      0.1688
    127  C         -3.8530   -0.6780  -15.0540 C.2   257  ASN257      0.2292
    128  O         -3.9100   -1.2880  -16.1410 O.2   257  ASN257     -0.2864
    129  CB        -1.3530   -0.6020  -14.8890 C.3   257  ASN257      0.1181
    130  CG        -0.1060    0.2360  -14.7020 C.2   257  ASN257      0.2629
    131  OD1        0.1710    1.1450  -15.4780 O.2   257  ASN257     -0.2716
    132  ND2        0.6740   -0.0890  -13.6710 N.am  257  ASN257     -0.0877
    133  N         -7.2030    0.3660  -14.9820 N.3   259  VAL259     -0.1245
    134  CA        -8.4160    1.1880  -15.1870 C.3   259  VAL259      0.1561
    135  C         -9.5090    0.4660  -16.0070 C.2   259  VAL259      0.2260
    136  O        -10.7120    0.6140  -15.7250 O.2   259  VAL259     -0.2867
    137  CB        -8.0640    2.5840  -15.7730 C.3   259  VAL259      0.0252
    138  CG1       -9.3100    3.3410  -16.2310 C.3   259  VAL259      0.0019
    139  CG2       -7.3020    3.4190  -14.7230 C.3   259  VAL259      0.0019
    140  N        -10.7220   20.7030  -18.7520 N.3   275  GLU275     -0.1245
    141  CA       -10.3730   19.4670  -19.4220 C.3   275  GLU275      0.1567
    142  C        -10.3800   19.7010  -20.9260 C.2   275  GLU275      0.2260
    143  O        -11.4380   19.8960  -21.5100 O.2   275  GLU275     -0.2867
    144  CB       -11.3730   18.3630  -19.0490 C.3   275  GLU275      0.0388
    145  CG       -10.8780   16.9640  -19.3440 C.3   275  GLU275      0.1160
    146  CD        -9.7740   16.5310  -18.3960 C.2   275  GLU275      0.3649
    147  OE1      -10.0870   16.0930  -17.2670 O.co2 275  GLU275     -0.2457
    148  OE2       -8.5910   16.6630  -18.7760 O.co2 275  GLU275     -0.2457
    149  N         -9.8610   17.6710  -23.3390 N.3   277  ALA277     -0.1231
    150  CA       -10.6150   16.6170  -24.0030 C.3   277  ALA277      0.1694
    151  C        -11.2270   15.6960  -22.9540 C.2   277  ALA277      0.2593
    152  O        -12.4030   15.8460  -22.6330 O.2   277  ALA277     -0.2718
    153  CB        -9.7530   15.8650  -25.0080 C.3   277  ALA277      0.0304
    154  N        -10.4280   14.7900  -22.3900 N.am  278  GLY278     -0.1942
    155  CA       -10.9030   13.9080  -21.3330 C.3   278  GLY278      0.2014
    156  C        -11.0810   12.4970  -21.8630 C.2   278  GLY278      0.2639
    157  O        -12.2120   12.0230  -22.0670 O.2   278  GLY278     -0.2714
    158  N         -9.9530   11.8240  -22.0800 N.am  279  ILE279     -0.1963
    159  CA        -9.9330   10.4390  -22.5450 C.3   279  ILE279      0.1727
    160  C        -10.8080    9.5440  -21.6720 C.2   279  ILE279      0.2616
    161  O        -11.5180    8.6860  -22.2040 O.2   279  ILE279     -0.2715
    162  CB        -8.4740    9.8890  -22.6220 C.3   279  ILE279      0.0290
    163  CG1       -7.6730   10.6600  -23.6700 C.3   279  ILE279      0.0022
    164  CG2       -8.4530    8.3840  -22.9200 C.3   279  ILE279      0.0023
    165  CD1       -6.1660   10.4570  -23.5600 C.3   279  ILE279      0.0001
    166  N        -10.7690    9.7350  -20.3470 N.am  280  VAL280     -0.1977
    167  CA       -11.5530    8.8540  -19.4760 C.3   280  VAL280      0.1596
    168  C        -13.0460    8.8630  -19.7930 C.2   280  VAL280      0.2287
    169  O        -13.7210    7.8530  -19.5960 O.2   280  VAL280     -0.2864
    170  CB       -11.3220    9.1070  -17.9780 C.3   280  VAL280      0.0276
    171  CG1       -9.8770    8.7670  -17.6110 C.3   280  VAL280      0.0022
    172  CG2      -11.7150   10.5510  -17.5830 C.3   280  VAL280      0.0022
    173  N        -13.3100    6.4540  -22.6660 N.3   283  GLU283     -0.1245
    174  CA       -12.9990    5.1120  -22.1740 C.3   283  GLU283      0.1567
    175  C        -14.2310    4.5240  -21.4920 C.2   283  GLU283      0.2260
    176  O        -14.5740    3.3630  -21.7090 O.2   283  GLU283     -0.2867
    177  CB       -11.8290    5.1490  -21.2090 C.3   283  GLU283      0.0388
    178  CG       -10.4880    5.4070  -21.8900 C.3   283  GLU283      0.1160
    179  CD        -9.3350    5.5480  -20.8940 C.2   283  GLU283      0.3649
    180  OE1       -9.5770    5.8950  -19.7160 O.co2 283  GLU283     -0.2457
    181  OE2       -8.1800    5.3320  -21.3090 O.co2 283  GLU283     -0.2457
@<TRIPOS>BOND
     1    46    47    1
     2    38    37    2
     3    47    50    1
     4    47    48    1
     5   153   150    1
     6    37    36    1
     7    30    29    2
     8    48    49    2
     9   150   149    1
    10   150   151    1
    11   163   165    1
    12   163   162    1
    13    26    25    2
    14    36    35    1
    15    36    39    1
    16    29    28    1
    17    32    34    1
    18    32    33    1
    19    32    31    1
    20    28    31    1
    21    28    27    1
    22    51    52    1
    23   151   152    2
    24   151   154   am
    25   164   162    1
    26    39    40    1
    27    53    52    1
    28    53    54    2
    29   173   174    1
    30   162   159    1
    31   159   158    1
    32   159   160    1
    33    25    27   am
    34    25    24    1
    35   154   155    1
    36    52    55    1
    37   161   160    2
    38    55    56    1
    39   174   175    1
    40   174   177    1
    41    45    43    1
    42   158   156   am
    43   157   156    2
    44   178   177    1
    45   178   179    1
    46   156   155    1
    47    57    56    1
    48    57    58    1
    49   176   175    2
    50   160   166   am
    51   143   142    2
    52    43    42    2
    53    43    44    1
    54    24    23    1
    55    40    41    1
    56   181   179   ar
    57    42    41    1
    58   142   141    1
    59   179   180   ar
    60    58    59    2
    61    22    21    2
    62   166   167    1
    63    23    21   am
    64    59    60    1
    65    59    61    1
    66   168   169    2
    67   168   167    1
    68    21    20    1
    69   167   170    1
    70   141   144    1
    71   141   140    1
    72   145   144    1
    73   145   146    1
    74   148   146   ar
    75   146   147   ar
    76    20    19    1
    77     4     3    2
    78   170   171    1
    79   170   172    1
    80     2     3    1
    81     2     5    1
    82     2     1    1
    83    19    10   am
    84     3     8   am
    85     5     6    1
    86     1     7    1
    87    88    87    1
    88     8     9    1
    89     6     7    1
    90    10     9    1
    91    10    11    2
    92    98    97    1
    93   138   137    1
    94    89    87    1
    95   128   127    2
    96    87    86    2
    97     9    12    1
    98   135   136    2
    99   135   134    1
   100   137   134    1
   101   137   139    1
   102   131   130    2
   103    86    85    1
   104   134   133    1
   105    85    84    1
   106   127   126    1
   107    97    96    1
   108   129   126    1
   109   129   130    1
   110   126   125    1
   111   130   132   am
   112    12    13    1
   113    14    16   ar
   114    14    13   ar
   115    67    66    1
   116    65    64    2
   117    84    83    1
   118    16    18   ar
   119    13    15   ar
   120   117   116    2
   121    66    68    1
   122    66    63    1
   123    96    95    1
   124    95    94    1
   125    70    69    1
   126    70    71    1
   127    64    69   am
   128    64    63    1
   129   125   116   am
   130    18    17   ar
   131    15    17   ar
   132   116   115    1
   133    73    71   am
   134    73    74    1
   135    78    77    1
   136    77    74    1
   137    63    62    1
   138    82    81    2
   139    83    80    1
   140    94    91    1
   141    71    72    2
   142    91    90    1
   143    91    92    1
   144    74    75    1
   145    81    90   am
   146    81    80    1
   147    75    76    2
   148    80    79    1
   149    93    92    2
   150   115   114    1
   151   115   118    1
   152   114   112   am
   153   118   119    1
   154   102   101    2
   155   112   111    1
   156   112   113    2
   157   111   110    1
   158   104   103    1
   159   107   108    1
   160   107   106    1
   161   103   105    1
   162   103   100    1
   163   101   106   am
   164   101   100    1
   165   108   109    2
   166   119   120    1
   167   121   120    1
   168   121   122    2
   169   100    99    1
   170   124   122    1
   171   122   123    1
