@<TRIPOS>MOLECULE
tmp/2ivdA00.pdb
 179 172 0 0 0
SMALL
GASTEIGER

@<TRIPOS>ATOM
      1  N         81.4110   42.1030   22.2740 N.3    52  GLY52      -0.1210
      2  CA        81.1820   40.7300   22.6690 C.3    52  GLY52       0.1940
      3  C         81.8520   40.4150   23.9880 C.2    52  GLY52       0.2454
      4  O         81.2900   40.6990   25.0450 O.2    52  GLY52      -0.2732
      5  N         83.0640   39.8350   23.9340 N.am   53  PRO53      -0.2717
      6  CA        83.8250   39.4730   25.1400 C.3    53  PRO53       0.1535
      7  C         84.0880   40.6410   26.1020 C.2    53  PRO53       0.2598
      8  O         84.3280   41.7700   25.6700 O.2    53  PRO53      -0.2715
      9  CB        85.1460   38.9200   24.5770 C.3    53  PRO53       0.0310
     10  CG        85.2130   39.4130   23.1410 C.3    53  PRO53       0.0237
     11  CD        83.7860   39.4860   22.6960 C.3    53  PRO53       0.0939
     12  N         84.0460   40.3520   27.3980 N.am   54  ASN54      -0.1973
     13  CA        84.2540   41.3650   28.4260 C.3    54  ASN54       0.1688
     14  C         85.5520   41.2110   29.2100 C.2    54  ASN54       0.2292
     15  O         86.0550   42.1790   29.7700 O.2    54  ASN54      -0.2864
     16  CB        83.0690   41.4070   29.3970 C.3    54  ASN54       0.1181
     17  CG        81.8940   42.1810   28.8470 C.2    54  ASN54       0.2629
     18  OD1       81.7090   43.3480   29.1720 O.2    54  ASN54      -0.2716
     19  ND2       81.0960   41.5390   28.0040 N.am   54  ASN54      -0.0877
     20  N         78.9800   35.9470   42.5910 N.3    86  ARG86      -0.1231
     21  CA        78.1780   35.6090   41.4160 C.3    86  ARG86       0.1694
     22  C         76.7660   35.2760   41.9010 C.2    86  ARG86       0.2592
     23  O         76.5810   34.7740   43.0140 O.2    86  ARG86      -0.2718
     24  CB        78.7660   34.4030   40.6600 C.3    86  ARG86       0.0321
     25  CG        80.2570   34.4860   40.3010 C.3    86  ARG86       0.0489
     26  CD        80.5430   35.4860   39.1730 C.3    86  ARG86       0.2205
     27  NE        81.8840   35.3180   38.5980 N.pl3  86  ARG86      -0.0865
     28  CZ        82.9960   35.8980   39.0560 C.cat  86  ARG86       0.5346
     29  NH1       82.9630   36.7060   40.1150 N.pl3  86  ARG86       0.1354
     30  NH2       84.1540   35.6670   38.4500 N.pl3  86  ARG86       0.1354
     31  N         75.7690   35.5690   41.0760 N.am   87  TYR87      -0.1976
     32  CA        74.3880   35.2370   41.4220 C.3    87  TYR87       0.1639
     33  C         73.7700   34.3090   40.3930 C.2    87  TYR87       0.2290
     34  O         74.1630   34.3160   39.2300 O.2    87  TYR87      -0.2864
     35  CB        73.5310   36.5040   41.6080 C.3    87  TYR87       0.0560
     36  CG        73.9710   37.3360   42.7900 C.ar   87  TYR87      -0.0198
     37  CD1       73.3420   37.2070   44.0260 C.ar   87  TYR87      -0.0009
     38  CD2       75.0450   38.2350   42.6800 C.ar   87  TYR87      -0.0009
     39  CE1       73.7540   37.9510   45.1180 C.ar   87  TYR87       0.0417
     40  CE2       75.4700   38.9820   43.7690 C.ar   87  TYR87       0.0417
     41  CZ        74.8180   38.8400   44.9850 C.ar   87  TYR87       0.1957
     42  OH        75.2230   39.5810   46.0720 O.3    87  TYR87      -0.2866
     43  N         76.9670   27.8630   34.7730 N.3   155  VAL155     -0.1245
     44  CA        78.3730   27.8900   34.3260 C.3   155  VAL155      0.1561
     45  C         78.5120   27.7390   32.8060 C.2   155  VAL155      0.2260
     46  O         79.2770   28.4610   32.1680 O.2   155  VAL155     -0.2867
     47  CB        79.2180   26.7880   35.0460 C.3   155  VAL155      0.0252
     48  CG1       80.5760   26.5870   34.3700 C.3   155  VAL155      0.0019
     49  CG2       79.3920   27.1160   36.5270 C.3   155  VAL155      0.0019
     50  N         76.0870   28.3500   30.6060 N.3   157  THR157     -0.1203
     51  CA        75.4240   29.4830   29.9670 C.3   157  THR157      0.1994
     52  C         76.3660   30.6860   29.8820 C.2   157  THR157      0.2618
     53  O         76.4490   31.3380   28.8430 O.2   157  THR157     -0.2717
     54  CB        74.1250   29.8410   30.7060 C.3   157  THR157      0.1784
     55  OG1       73.2230   28.7370   30.6080 O.3   157  THR157     -0.2211
     56  CG2       73.4610   31.0720   30.1120 C.3   157  THR157      0.0376
     57  N         77.0900   30.9500   30.9630 N.am  158  GLY158     -0.1942
     58  CA        78.0340   32.0570   31.0120 C.3   158  GLY158      0.2014
     59  C         79.2430   31.9320   30.0990 C.2   158  GLY158      0.2639
     60  O         79.9180   32.9230   29.8530 O.2   158  GLY158     -0.2714
     61  N         79.5110   30.7280   29.5900 N.am  159  ILE159     -0.1963
     62  CA        80.6750   30.4740   28.7290 C.3   159  ILE159      0.1727
     63  C         80.2920   30.1520   27.2720 C.2   159  ILE159      0.2616
     64  O         80.9390   30.6300   26.3440 O.2   159  ILE159     -0.2715
     65  CB        81.5860   29.3450   29.3130 C.3   159  ILE159      0.0290
     66  CG1       82.0660   29.7080   30.7250 C.3   159  ILE159      0.0022
     67  CG2       82.7810   29.0670   28.4050 C.3   159  ILE159      0.0023
     68  CD1       82.6210   28.5410   31.5280 C.3   159  ILE159      0.0001
     69  N         79.2520   29.3440   27.0660 N.am  160  TYR160     -0.1960
     70  CA        78.9290   28.8640   25.7150 C.3   160  TYR160      0.1771
     71  C         77.5710   29.3190   25.1900 C.2   160  TYR160      0.2619
     72  O         77.3350   29.2570   23.9840 O.2   160  TYR160     -0.2715
     73  CB        79.0370   27.3360   25.6350 C.3   160  TYR160      0.0574
     74  CG        80.4150   26.7920   25.9500 C.ar  160  TYR160     -0.0198
     75  CD1       80.6930   26.2300   27.2000 C.ar  160  TYR160     -0.0009
     76  CD2       81.4470   26.8430   24.9980 C.ar  160  TYR160     -0.0009
     77  CE1       81.9470   25.7260   27.4910 C.ar  160  TYR160      0.0417
     78  CE2       82.7130   26.3490   25.2790 C.ar  160  TYR160      0.0417
     79  CZ        82.9560   25.7910   26.5260 C.ar  160  TYR160      0.1957
     80  OH        84.2110   25.3010   26.8200 O.3   160  TYR160     -0.2866
     81  N         76.6920   29.7860   26.0820 N.am  161  ALA161     -0.1977
     82  CA        75.3050   30.0820   25.7340 C.3   161  ALA161      0.1597
     83  C         74.6960   28.8570   25.0260 C.2   161  ALA161      0.2287
     84  O         73.9990   28.9680   24.0070 O.2   161  ALA161     -0.2864
     85  CB        75.2140   31.3530   24.8650 C.3   161  ALA161      0.0319
     86  N         89.6200   37.7650   37.2240 N.3   210  LEU210     -0.1245
     87  CA        88.8330   38.1970   36.0770 C.3   210  LEU210      0.1561
     88  C         89.3200   39.5690   35.5760 C.2   210  LEU210      0.2260
     89  O         89.1540   40.5810   36.2590 O.2   210  LEU210     -0.2867
     90  CB        87.3590   38.2330   36.4760 C.3   210  LEU210      0.0270
     91  CG        86.3210   38.3020   35.3670 C.3   210  LEU210      0.0019
     92  CD1       85.2240   37.2980   35.6450 C.3   210  LEU210      0.0001
     93  CD2       85.7810   39.7170   35.2580 C.3   210  LEU210      0.0001
     94  N         73.6610   34.9980   19.6100 N.3   296  ILE296     -0.1245
     95  CA        73.6530   35.7240   20.8710 C.3   296  ILE296      0.1561
     96  C         73.5570   37.2330   20.6280 C.2   296  ILE296      0.2260
     97  O         74.1890   37.7640   19.7220 O.2   296  ILE296     -0.2867
     98  CB        74.8820   35.3290   21.7770 C.3   296  ILE296      0.0252
     99  CG1       74.8450   36.0610   23.1270 C.3   296  ILE296      0.0019
    100  CG2       76.2090   35.5010   21.0320 C.3   296  ILE296      0.0019
    101  CD1       75.7610   35.4640   24.1970 C.3   296  ILE296      0.0001
    102  N         79.6640   40.4210   40.1130 N.3   314  PHE314     -0.1227
    103  CA        80.0880   40.4420   38.7120 C.3   314  PHE314      0.1736
    104  C         78.8880   40.4790   37.7590 C.2   314  PHE314      0.2596
    105  O         78.9450   41.0940   36.6950 O.2   314  PHE314     -0.2718
    106  CB        80.9730   39.2180   38.4250 C.3   314  PHE314      0.0547
    107  CG        81.2630   38.9860   36.9560 C.ar  314  PHE314     -0.0202
    108  CD1       82.0540   39.8860   36.2260 C.ar  314  PHE314     -0.0042
    109  CD2       80.7650   37.8550   36.3030 C.ar  314  PHE314     -0.0042
    110  CE1       82.3300   39.6730   34.8750 C.ar  314  PHE314     -0.0003
    111  CE2       81.0360   37.6310   34.9430 C.ar  314  PHE314     -0.0003
    112  CZ        81.8230   38.5420   34.2310 C.ar  314  PHE314     -0.0000
    113  N         77.8040   39.8240   38.1650 N.am  315  GLY315     -0.1942
    114  CA        76.5920   39.7180   37.3720 C.3   315  GLY315      0.2014
    115  C         75.7520   38.5410   37.8390 C.2   315  GLY315      0.2639
    116  O         75.9550   38.0190   38.9380 O.2   315  GLY315     -0.2714
    117  N         74.7940   38.1340   37.0120 N.am  316  PHE316     -0.1959
    118  CA        73.9900   36.9530   37.3190 C.3   316  PHE316      0.1771
    119  C         73.7340   36.0760   36.1010 C.2   316  PHE316      0.2619
    120  O         73.9370   36.4790   34.9580 O.2   316  PHE316     -0.2715
    121  CB        72.6760   37.3160   38.0460 C.3   316  PHE316      0.0574
    122  CG        71.6820   38.0650   37.1930 C.ar  316  PHE316     -0.0200
    123  CD1       70.7430   37.3780   36.4210 C.ar  316  PHE316     -0.0042
    124  CD2       71.6700   39.4590   37.1780 C.ar  316  PHE316     -0.0042
    125  CE1       69.8200   38.0610   35.6400 C.ar  316  PHE316     -0.0003
    126  CE2       70.7460   40.1470   36.4060 C.ar  316  PHE316     -0.0003
    127  CZ        69.8200   39.4450   35.6340 C.ar  316  PHE316     -0.0000
    128  N         73.2930   34.8610   36.3770 N.am  317  LEU317     -0.1977
    129  CA        73.0370   33.8700   35.3530 C.3   317  LEU317      0.1596
    130  C         71.6750   33.2820   35.6630 C.2   317  LEU317      0.2287
    131  O         71.2600   33.2590   36.8200 O.2   317  LEU317     -0.2864
    132  CB        74.1430   32.7900   35.3700 C.3   317  LEU317      0.0297
    133  CG        75.5380   33.1490   34.8130 C.3   317  LEU317      0.0022
    134  CD1       76.6260   32.1540   35.2460 C.3   317  LEU317      0.0001
    135  CD2       75.5370   33.2650   33.3080 C.3   317  LEU317      0.0001
    136  N         69.5890   35.3660   29.3920 N.3   327  LEU327     -0.1245
    137  CA        70.5770   34.3900   29.8780 C.3   327  LEU327      0.1561
    138  C         71.3020   34.8170   31.1620 C.2   327  LEU327      0.2260
    139  O         71.7410   33.9680   31.9450 O.2   327  LEU327     -0.2867
    140  CB        71.5960   34.0670   28.7750 C.3   327  LEU327      0.0270
    141  CG        71.0680   33.5520   27.4260 C.3   327  LEU327      0.0019
    142  CD1       72.1920   33.4650   26.4120 C.3   327  LEU327      0.0001
    143  CD2       70.3910   32.2150   27.6050 C.3   327  LEU327      0.0001
    144  N         73.3450   38.7620   33.0820 N.3   329  ALA329     -0.1231
    145  CA        73.9260   40.1060   32.8600 C.3   329  ALA329      0.1694
    146  C         75.1690   40.3980   33.7080 C.2   329  ALA329      0.2591
    147  O         75.2500   39.9530   34.8390 O.2   329  ALA329     -0.2718
    148  CB        72.8550   41.1980   33.0820 C.3   329  ALA329      0.0304
    149  N         76.1320   41.1160   33.1230 N.am  330  ILE330     -0.1980
    150  CA        77.2420   41.8290   33.8130 C.3   330  ILE330      0.1595
    151  C         76.6750   43.2780   33.8720 C.2   330  ILE330      0.2287
    152  O         76.3980   43.8080   32.8030 O.2   330  ILE330     -0.2864
    153  CB        78.5270   41.7020   32.9060 C.3   330  ILE330      0.0276
    154  CG1       78.7150   40.2330   32.4600 C.3   330  ILE330      0.0022
    155  CG2       79.7990   42.2330   33.5960 C.3   330  ILE330      0.0022
    156  CD1       79.3830   40.0160   31.0960 C.3   330  ILE330      0.0001
    157  N         72.6290   39.4690   28.2410 N.3   350  MET350     -0.1245
    158  CA        72.8660   38.4820   27.1850 C.3   350  MET350      0.1570
    159  C         71.5780   37.7610   26.8430 C.2   350  MET350      0.2261
    160  O         70.8700   37.2990   27.7270 O.2   350  MET350     -0.2867
    161  CB        73.9450   37.4990   27.6130 C.3   350  MET350      0.0387
    162  CG        75.2110   38.1820   28.0510 C.3   350  MET350      0.0595
    163  SD        76.1290   38.8710   26.6740 S.3   350  MET350     -0.1393
    164  CE        77.3870   39.7970   27.5570 C.3   350  MET350      0.0692
    165  N         78.1550   31.5190   19.1230 N.3   397  ILE397     -0.1245
    166  CA        79.2930   30.9740   19.8530 C.3   397  ILE397      0.1561
    167  C         79.3050   29.5130   19.4170 C.2   397  ILE397      0.2260
    168  O         78.2590   28.8680   19.3460 O.2   397  ILE397     -0.2867
    169  CB        79.2910   31.0690   21.3900 C.3   397  ILE397      0.0252
    170  CG1       78.8050   32.4480   21.8390 C.3   397  ILE397      0.0019
    171  CG2       80.6790   30.7810   21.9430 C.3   397  ILE397      0.0019
    172  CD1       79.8360   33.5430   21.6710 C.3   397  ILE397      0.0001
    173  N         87.0550   28.0300   22.7890 N.3   431  VAL431     -0.1245
    174  CA        86.2220   29.1720   22.4290 C.3   431  VAL431      0.1561
    175  C         86.7710   30.5050   22.9770 C.2   431  VAL431      0.2260
    176  O         86.7200   31.5250   22.2980 O.2   431  VAL431     -0.2867
    177  CB        84.7420   28.9140   22.8680 C.3   431  VAL431      0.0252
    178  CG1       83.9150   30.1930   22.9260 C.3   431  VAL431      0.0019
    179  CG2       84.0750   27.8940   21.9460 C.3   431  VAL431      0.0019
@<TRIPOS>BOND
     1   165   166    1
     2   168   167    2
     3   167   166    1
     4    94    95    1
     5    97    96    2
     6   166   169    1
     7    96    95    1
     8    95    98    1
     9   100    98    1
    10   169   170    1
    11   169   171    1
    12   172   170    1
    13    98    99    1
    14   179   177    1
    15     1     2    1
    16   176   175    2
    17   174   173    1
    18   174   177    1
    19   174   175    1
    20     2     3    1
    21    11    10    1
    22    11     5    1
    23   177   178    1
    24    99   101    1
    25    10     9    1
    26     5     3   am
    27     5     6    1
    28    72    71    2
    29     3     4    2
    30    84    83    2
    31     9     6    1
    32    85    82    1
    33    76    78   ar
    34    76    74   ar
    35    83    82    1
    36     6     7    1
    37    71    70    1
    38    71    81   am
    39    78    79   ar
    40    73    70    1
    41    73    74    1
    42     8     7    2
    43    70    69    1
    44    82    81    1
    45    74    75   ar
    46     7    12   am
    47    64    63    2
    48   142   141    1
    49    79    80    1
    50    79    77   ar
    51   163   164    1
    52   163   162    1
    53   159   158    1
    54   159   160    2
    55    69    63   am
    56   158   161    1
    57   158   157    1
    58    75    77   ar
    59    63    62    1
    60    12    13    1
    61   141   143    1
    62   141   140    1
    63   161   162    1
    64    19    17   am
    65    67    65    1
    66    13    14    1
    67    13    16    1
    68    62    65    1
    69    62    61    1
    70   140   137    1
    71    53    52    2
    72    17    18    2
    73    17    16    1
    74    14    15    2
    75    65    66    1
    76   136   137    1
    77    61    59   am
    78    60    59    2
    79   137   138    1
    80    52    51    1
    81    52    57   am
    82    51    50    1
    83    51    54    1
    84    59    58    1
    85    56    54    1
    86    55    54    1
    87    66    68    1
    88    57    58    1
    89   156   154    1
    90   138   139    2
    91    46    45    2
    92   154   153    1
    93   152   151    2
    94    45    44    1
    95   145   148    1
    96   145   144    1
    97   145   146    1
    98   153   155    1
    99   153   150    1
   100   149   146   am
   101   149   150    1
   102   135   133    1
   103   146   147    2
   104   150   151    1
   105   112   110   ar
   106   112   111   ar
   107    44    43    1
   108    44    47    1
   109    48    47    1
   110   133   134    1
   111   133   132    1
   112   110   108   ar
   113   111   109   ar
   114   120   119    2
   115    47    49    1
   116    93    91    1
   117   129   132    1
   118   129   130    1
   119   129   128    1
   120    91    92    1
   121    91    90    1
   122    88    87    1
   123    88    89    2
   124   127   125   ar
   125   127   126   ar
   126   125   123   ar
   127   130   131    2
   128    87    90    1
   129    87    86    1
   130   119   128   am
   131   119   118    1
   132   108   107   ar
   133   109   107   ar
   134   126   124   ar
   135   123   122   ar
   136   105   104    2
   137   107   106    1
   138   117   118    1
   139   117   115   am
   140   124   122   ar
   141   122   121    1
   142   118   121    1
   143   114   115    1
   144   114   113    1
   145   104   113   am
   146   104   103    1
   147   115   116    2
   148   106   103    1
   149    30    28    1
   150    27    28    2
   151    27    26    1
   152   103   102    1
   153    28    29    1
   154    26    25    1
   155    34    33    2
   156    25    24    1
   157    33    32    1
   158    24    21    1
   159    31    32    1
   160    31    22   am
   161    21    22    1
   162    21    20    1
   163    32    35    1
   164    35    36    1
   165    22    23    2
   166    38    36   ar
   167    38    40   ar
   168    36    37   ar
   169    40    41   ar
   170    37    39   ar
   171    41    39   ar
   172    41    42    1
