@<TRIPOS>MOLECULE
tmp/2ivdB02.pdb
 86 83 0 0 0
SMALL
GASTEIGER

@<TRIPOS>ATOM
      1  N         88.0580   11.7870   60.8120 N.3   116  LEU116     -0.1231
      2  CA        86.7410   11.3830   60.3150 C.3   116  LEU116      0.1693
      3  C         85.7820   10.9780   61.4420 C.2   116  LEU116      0.2591
      4  O         84.5810   11.1890   61.3420 O.2   116  LEU116     -0.2718
      5  CB        86.8760   10.2530   59.2910 C.3   116  LEU116      0.0284
      6  CG        87.6290   10.5870   57.9960 C.3   116  LEU116      0.0019
      7  CD1       87.9560    9.3050   57.2370 C.3   116  LEU116      0.0001
      8  CD2       86.8600   11.5810   57.1020 C.3   116  LEU116      0.0001
      9  N         86.3290   10.3970   62.5070 N.am  117  ARG117     -0.1980
     10  CA        85.5770   10.0380   63.7090 C.3   117  ARG117      0.1597
     11  C         85.0420   11.2790   64.4350 C.2   117  ARG117      0.2287
     12  O         83.9730   11.2240   65.0390 O.2   117  ARG117     -0.2864
     13  CB        86.4610    9.1520   64.6240 C.3   117  ARG117      0.0334
     14  CG        85.8740    8.7020   65.9790 C.3   117  ARG117      0.0492
     15  CD        84.4460    8.1370   65.8940 C.3   117  ARG117      0.2205
     16  NE        83.8440    7.9650   67.2180 N.pl3 117  ARG117     -0.0865
     17  CZ        82.9950    8.8230   67.7890 C.cat 117  ARG117      0.5346
     18  NH1       82.6240    9.9370   67.1560 N.pl3 117  ARG117      0.1354
     19  NH2       82.5090    8.5660   68.9980 N.pl3 117  ARG117      0.1354
     20  N         84.1730   14.1360   62.7730 N.3   119  ALA119     -0.1231
     21  CA        83.0170   14.3900   61.9080 C.3   119  ALA119      0.1694
     22  C         81.8180   13.4880   62.2620 C.2   119  ALA119      0.2592
     23  O         80.6670   13.9330   62.2120 O.2   119  ALA119     -0.2718
     24  CB        83.4020   14.2410   60.4380 C.3   119  ALA119      0.0304
     25  N         82.0970   12.2380   62.6380 N.am  120  GLY120     -0.1957
     26  CA        81.0730   11.2970   63.1160 C.3   120  GLY120      0.1869
     27  C         80.4140   11.6340   64.4490 C.2   120  GLY120      0.2309
     28  O         79.5690   10.8840   64.9090 O.2   120  GLY120     -0.2863
     29  N         78.3150   13.7520   64.8490 N.3   122  LEU122     -0.1231
     30  CA        76.9190   13.8590   64.4360 C.3   122  LEU122      0.1693
     31  C         76.0470   12.6780   64.8630 C.2   122  LEU122      0.2592
     32  O         74.8400   12.8250   65.0120 O.2   122  LEU122     -0.2718
     33  CB        76.8420   14.0320   62.9180 C.3   122  LEU122      0.0284
     34  CG        77.1110   15.4470   62.4030 C.3   122  LEU122      0.0019
     35  CD1       77.4140   15.4170   60.9050 C.3   122  LEU122      0.0001
     36  CD2       75.9310   16.3640   62.7040 C.3   122  LEU122      0.0001
     37  N         76.6750   11.5190   65.0480 N.am  123  PHE123     -0.1962
     38  CA        75.9830   10.2690   65.3820 C.3   123  PHE123      0.1771
     39  C         76.2660    9.8090   66.8070 C.2   123  PHE123      0.2620
     40  O         76.0070    8.6540   67.1430 O.2   123  PHE123     -0.2715
     41  CB        76.3470    9.1540   64.3740 C.3   123  PHE123      0.0574
     42  CG        76.2040    9.5690   62.9410 C.ar  123  PHE123     -0.0200
     43  CD1       77.3310    9.8380   62.1670 C.ar  123  PHE123     -0.0042
     44  CD2       74.9460    9.7370   62.3770 C.ar  123  PHE123     -0.0042
     45  CE1       77.2120   10.2560   60.8330 C.ar  123  PHE123     -0.0003
     46  CE2       74.8110   10.1550   61.0460 C.ar  123  PHE123     -0.0003
     47  CZ        75.9500   10.4130   60.2730 C.ar  123  PHE123     -0.0000
     48  N         76.7980   10.7100   67.6320 N.am  124  SER124     -0.1936
     49  CA        77.0290   10.4630   69.0610 C.3   124  SER124      0.2055
     50  C         75.8370    9.7980   69.7340 C.2   124  SER124      0.2642
     51  O         74.6850   10.2150   69.5540 O.2   124  SER124     -0.2714
     52  CB        77.3650   11.7610   69.8200 C.3   124  SER124      0.2130
     53  OG        78.5790   12.3240   69.3620 O.3   124  SER124     -0.2179
     54  N         76.1340    8.7610   70.5120 N.am  125  ARG125     -0.1977
     55  CA        75.1180    8.0840   71.3050 C.3   125  ARG125      0.1597
     56  C         74.6480    9.0270   72.4050 C.2   125  ARG125      0.2287
     57  O         75.3660    9.9670   72.7780 O.2   125  ARG125     -0.2864
     58  CB        75.6660    6.7750   71.8930 C.3   125  ARG125      0.0334
     59  CG        75.8200    5.6560   70.8680 C.3   125  ARG125      0.0492
     60  CD        76.2770    4.3610   71.5280 C.3   125  ARG125      0.2205
     61  NE        76.9770    3.4780   70.5900 N.pl3 125  ARG125     -0.0865
     62  CZ        76.4340    2.4180   69.9850 C.cat 125  ARG125      0.5346
     63  NH1       77.1560    1.6900   69.1420 N.pl3 125  ARG125      0.1354
     64  NH2       75.1770    2.0740   70.2210 N.pl3 125  ARG125      0.1354
     65  N         85.1860   10.4380   74.6040 N.3   140  ARG140     -0.1231
     66  CA        85.2040    9.1560   73.9030 C.3   140  ARG140      0.1694
     67  C         83.9420    8.9420   73.1010 C.2   140  ARG140      0.2591
     68  O         83.9820    8.4910   71.9460 O.2   140  ARG140     -0.2718
     69  CB        85.3110    8.0180   74.8990 C.3   140  ARG140      0.0321
     70  CG        86.6950    7.6610   75.2990 C.3   140  ARG140      0.0489
     71  CD        86.6040    6.6590   76.4510 C.3   140  ARG140      0.2205
     72  NE        87.8000    6.7430   77.2610 N.pl3 140  ARG140     -0.0865
     73  CZ        87.8610    7.0570   78.5470 C.cat 140  ARG140      0.5346
     74  NH1       86.7970    7.2980   79.2800 N.pl3 140  ARG140      0.1354
     75  NH2       89.0370    7.1050   79.1050 N.pl3 140  ARG140      0.1354
     76  N         82.8250    9.2490   73.7490 N.am  141  ARG141     -0.1980
     77  CA        81.4860    9.0580   73.2180 C.3   141  ARG141      0.1597
     78  C         81.2310   10.0120   72.0520 C.2   141  ARG141      0.2287
     79  O         80.7290    9.6020   71.0010 O.2   141  ARG141     -0.2864
     80  CB        80.4810    9.3070   74.3460 C.3   141  ARG141      0.0334
     81  CG        79.1650    8.5770   74.2540 C.3   141  ARG141      0.0492
     82  CD        78.3140    8.9570   75.4630 C.3   141  ARG141      0.2205
     83  NE        77.4640   10.0820   75.1130 N.pl3 141  ARG141     -0.0865
     84  CZ        77.4950   11.2870   75.6580 C.cat 141  ARG141      0.5346
     85  NH1       78.3110   11.5850   76.6480 N.pl3 141  ARG141      0.1354
     86  NH2       76.6650   12.2000   75.1950 N.pl3 141  ARG141      0.1354
@<TRIPOS>BOND
     1     8     6    1
     2     7     6    1
     3     6     5    1
     4     5     2    1
     5    47    45   ar
     6    47    46   ar
     7     2     1    1
     8     2     3    1
     9    24    21    1
    10    45    43   ar
    11    35    34    1
    12    46    44   ar
    13     4     3    2
    14     3     9   am
    15    21    22    1
    16    21    20    1
    17    43    42   ar
    18    23    22    2
    19    22    25   am
    20    44    42   ar
    21    34    36    1
    22    34    33    1
    23     9    10    1
    24    25    26    1
    25    33    30    1
    26    42    41    1
    27    26    27    1
    28    10    11    1
    29    10    13    1
    30    41    38    1
    31    11    12    2
    32    30    29    1
    33    30    31    1
    34    27    28    2
    35    13    14    1
    36    31    32    2
    37    31    37   am
    38    37    38    1
    39    38    39    1
    40    15    14    1
    41    15    16    1
    42    39    40    2
    43    39    48   am
    44    18    17    1
    45    16    17    2
    46    48    49    1
    47    17    19    1
    48    49    50    1
    49    49    52    1
    50    63    62    1
    51    53    52    1
    52    51    50    2
    53    50    54   am
    54    62    64    1
    55    62    61    2
    56    54    55    1
    57    61    60    1
    58    59    60    1
    59    59    58    1
    60    79    78    2
    61    55    58    1
    62    55    56    1
    63    68    67    2
    64    78    77    1
    65    56    57    2
    66    67    76   am
    67    67    66    1
    68    77    76    1
    69    77    80    1
    70    66    65    1
    71    66    69    1
    72    81    80    1
    73    81    82    1
    74    69    70    1
    75    83    82    1
    76    83    84    2
    77    86    84    1
    78    70    71    1
    79    84    85    1
    80    71    72    1
    81    72    73    2
    82    73    75    1
    83    73    74    1
