@<TRIPOS>MOLECULE
tmp/2iveA01.pdb
 196 187 0 0 0
SMALL
GASTEIGER

@<TRIPOS>ATOM
      1  N         82.4510   39.9930   24.1550 N.3    53  PRO53      -0.2102
      2  CA        83.2310   39.5800   25.3260 C.3    53  PRO53       0.1504
      3  C         83.4840   40.7410   26.2830 C.2    53  PRO53       0.2576
      4  O         83.6950   41.8700   25.8400 O.2    53  PRO53      -0.2718
      5  CB        84.5530   39.1020   24.7150 C.3    53  PRO53       0.0282
      6  CG        84.6190   39.7660   23.3840 C.3    53  PRO53       0.0208
      7  CD        83.2040   39.8300   22.9000 C.3    53  PRO53       0.0893
      8  N         83.4600   40.4590   27.5810 N.am   54  ASN54      -0.1961
      9  CA        83.6130   41.4950   28.5950 C.3    54  ASN54       0.1819
     10  C         84.9150   41.3480   29.3750 C.2    54  ASN54       0.2622
     11  O         85.5490   42.3390   29.7380 O.2    54  ASN54      -0.2715
     12  CB        82.4220   41.4840   29.5560 C.3    54  ASN54       0.1195
     13  CG        81.1960   42.1570   28.9720 C.2    54  ASN54       0.2630
     14  OD1       80.9810   43.3540   29.1600 O.2    54  ASN54      -0.2716
     15  ND2       80.3830   41.3870   28.2570 N.am   54  ASN54      -0.0877
     16  N         85.3080   40.1040   29.6300 N.am   55  SER55      -0.1936
     17  CA        86.4580   39.8200   30.4850 C.3    55  SER55       0.2055
     18  C         87.1620   38.5070   30.1510 C.2    55  SER55       0.2643
     19  O         86.6500   37.6810   29.3930 O.2    55  SER55      -0.2714
     20  CB        86.0280   39.8050   31.9560 C.3    55  SER55       0.2130
     21  OG        85.1970   38.6890   32.2340 O.3    55  SER55      -0.2179
     22  N         88.3450   38.3360   30.7290 N.am   56  PHE56      -0.1959
     23  CA        89.0880   37.0880   30.6560 C.3    56  PHE56       0.1771
     24  C         89.6140   36.7610   32.0500 C.2    56  PHE56       0.2619
     25  O         89.9610   37.6660   32.8150 O.2    56  PHE56      -0.2715
     26  CB        90.2400   37.1930   29.6430 C.3    56  PHE56       0.0574
     27  CG        91.3450   38.1410   30.0570 C.ar   56  PHE56      -0.0200
     28  CD1       92.5510   37.6490   30.5560 C.ar   56  PHE56      -0.0042
     29  CD2       91.1830   39.5230   29.9430 C.ar   56  PHE56      -0.0042
     30  CE1       93.5770   38.5150   30.9400 C.ar   56  PHE56      -0.0003
     31  CE2       92.2010   40.3970   30.3270 C.ar   56  PHE56      -0.0003
     32  CZ        93.4000   39.8910   30.8260 C.ar   56  PHE56      -0.0000
     33  N         89.6530   35.4750   32.3870 N.am   57  LEU57      -0.1977
     34  CA        90.2530   35.0380   33.6440 C.3    57  LEU57       0.1596
     35  C         91.7660   35.1200   33.5190 C.2    57  LEU57       0.2287
     36  O         92.3630   34.4830   32.6440 O.2    57  LEU57      -0.2864
     37  CB        89.8010   33.6190   34.0120 C.3    57  LEU57       0.0297
     38  CG        88.6770   33.4180   35.0430 C.3    57  LEU57       0.0022
     39  CD1       87.5650   34.4620   34.9520 C.3    57  LEU57       0.0001
     40  CD2       88.0990   32.0200   34.9190 C.3    57  LEU57       0.0001
     41  N         94.5520   33.8620   34.1410 N.3    59  ARG59      -0.1245
     42  CA        95.1520   32.5920   34.5530 C.3    59  ARG59       0.1563
     43  C         95.8810   31.8790   33.4090 C.2    59  ARG59       0.2260
     44  O         96.4070   30.7810   33.5960 O.2    59  ARG59      -0.2867
     45  CB        94.0860   31.6690   35.1540 C.3    59  ARG59       0.0307
     46  CG        93.0400   31.2140   34.1520 C.3    59  ARG59       0.0489
     47  CD        92.1240   30.1540   34.7230 C.3    59  ARG59       0.2205
     48  NE        91.1800   29.6930   33.7080 N.pl3  59  ARG59      -0.0865
     49  CZ        90.1100   28.9390   33.9470 C.cat  59  ARG59       0.5346
     50  NH1       89.8230   28.5450   35.1840 N.pl3  59  ARG59       0.1354
     51  NH2       89.3240   28.5810   32.9400 N.pl3  59  ARG59       0.1354
     52  N         78.4450   36.1280   42.8980 N.3    86  ARG86      -0.1245
     53  CA        77.6130   36.0340   41.7050 C.3    86  ARG86       0.1563
     54  C         76.2650   35.4410   42.1180 C.2    86  ARG86       0.2260
     55  O         76.1480   34.8480   43.1930 O.2    86  ARG86      -0.2867
     56  CB        78.3070   35.2380   40.5850 C.3    86  ARG86       0.0307
     57  CG        79.0470   33.9880   41.0360 C.3    86  ARG86       0.0489
     58  CD        80.3040   33.7320   40.2020 C.3    86  ARG86       0.2205
     59  NE        80.9570   32.4720   40.5690 N.pl3  86  ARG86      -0.0865
     60  CZ        81.7260   32.2910   41.6460 C.cat  86  ARG86       0.5346
     61  NH1       81.9560   33.2890   42.4950 N.pl3  86  ARG86       0.1354
     62  NH2       82.2650   31.1010   41.8790 N.pl3  86  ARG86       0.1354
     63  N         75.5000   28.1350   30.7950 N.3   157  THR157     -0.1203
     64  CA        74.8800   29.2520   30.0710 C.3   157  THR157      0.1994
     65  C         75.7690   30.5030   30.1010 C.2   157  THR157      0.2618
     66  O         75.7690   31.3000   29.1610 O.2   157  THR157     -0.2717
     67  CB        73.4100   29.5450   30.5270 C.3   157  THR157      0.1784
     68  OG1       72.8750   30.6310   29.7650 O.3   157  THR157     -0.2211
     69  CG2       73.3320   29.9210   31.9830 C.3   157  THR157      0.0376
     70  N         76.5510   30.6380   31.1690 N.am  158  GLY158     -0.1942
     71  CA        77.4910   31.7390   31.3140 C.3   158  GLY158      0.2014
     72  C         78.6390   31.7370   30.3210 C.2   158  GLY158      0.2638
     73  O         79.1590   32.7960   29.9860 O.2   158  GLY158     -0.2714
     74  N         79.0350   30.5560   29.8520 N.am  159  ILE159     -0.1977
     75  CA        80.1640   30.4300   28.9300 C.3   159  ILE159      0.1596
     76  C         79.7150   30.2240   27.4800 C.2   159  ILE159      0.2287
     77  O         80.1410   30.9570   26.5850 O.2   159  ILE159     -0.2864
     78  CB        81.1310   29.2890   29.3570 C.3   159  ILE159      0.0276
     79  CG1       81.6710   29.5430   30.7690 C.3   159  ILE159      0.0022
     80  CG2       82.2770   29.1380   28.3540 C.3   159  ILE159      0.0022
     81  CD1       82.2680   28.3180   31.4390 C.3   159  ILE159      0.0001
     82  N         76.3120   29.7230   26.3880 N.3   161  ALA161     -0.1245
     83  CA        74.9190   30.0710   26.1090 C.3   161  ALA161      0.1562
     84  C         74.2710   28.9480   25.2950 C.2   161  ALA161      0.2260
     85  O         73.7220   29.1750   24.2170 O.2   161  ALA161     -0.2867
     86  CB        74.8290   31.4140   25.3740 C.3   161  ALA161      0.0290
     87  N         89.0340   37.8590   37.4920 N.3   210  LEU210     -0.1245
     88  CA        88.2720   38.3300   36.3440 C.3   210  LEU210      0.1561
     89  C         88.7950   39.7010   35.9070 C.2   210  LEU210      0.2260
     90  O         88.6010   40.7040   36.6010 O.2   210  LEU210     -0.2867
     91  CB        86.7950   38.4190   36.7130 C.3   210  LEU210      0.0270
     92  CG        85.8100   38.5630   35.5590 C.3   210  LEU210      0.0019
     93  CD1       85.0340   37.2730   35.3610 C.3   210  LEU210      0.0001
     94  CD2       84.8730   39.7070   35.8530 C.3   210  LEU210      0.0001
     95  N         73.0810   34.9970   19.7140 N.3   298  ILE298     -0.1245
     96  CA        73.0160   35.7550   20.9600 C.3   298  ILE298      0.1561
     97  C         72.9600   37.2620   20.7050 C.2   298  ILE298      0.2260
     98  O         73.6150   37.7750   19.7960 O.2   298  ILE298     -0.2867
     99  CB        74.1820   35.3850   21.9350 C.3   298  ILE298      0.0252
    100  CG1       74.0760   36.1800   23.2410 C.3   298  ILE298      0.0019
    101  CG2       75.5490   35.5780   21.2730 C.3   298  ILE298      0.0019
    102  CD1       74.4500   35.3970   24.4690 C.3   298  ILE298      0.0001
    103  N         79.1040   40.4120   40.5700 N.3   316  PHE316     -0.1227
    104  CA        79.5020   40.4110   39.1600 C.3   316  PHE316      0.1736
    105  C         78.2940   40.2830   38.2190 C.2   316  PHE316      0.2596
    106  O         78.3580   40.6950   37.0610 O.2   316  PHE316     -0.2718
    107  CB        80.5420   39.3010   38.9140 C.3   316  PHE316      0.0547
    108  CG        80.8810   39.0630   37.4570 C.ar  316  PHE316     -0.0202
    109  CD1       81.2310   40.1170   36.6120 C.ar  316  PHE316     -0.0042
    110  CD2       80.8850   37.7700   36.9410 C.ar  316  PHE316     -0.0042
    111  CE1       81.5440   39.8920   35.2690 C.ar  316  PHE316     -0.0003
    112  CE2       81.2110   37.5340   35.5990 C.ar  316  PHE316     -0.0003
    113  CZ        81.5360   38.5980   34.7640 C.ar  316  PHE316     -0.0000
    114  N         77.1930   39.7320   38.7280 N.am  317  GLY317     -0.1942
    115  CA        75.9710   39.5670   37.9450 C.3   317  GLY317      0.2014
    116  C         75.1200   38.3910   38.3790 C.2   317  GLY317      0.2639
    117  O         75.3250   37.8230   39.4570 O.2   317  GLY317     -0.2714
    118  N         74.1540   38.0310   37.5380 N.am  318  PHE318     -0.1959
    119  CA        73.3050   36.8710   37.7900 C.3   318  PHE318      0.1771
    120  C         73.0100   36.0880   36.5190 C.2   318  PHE318      0.2619
    121  O         72.9200   36.6630   35.4380 O.2   318  PHE318     -0.2715
    122  CB        71.9970   37.2890   38.4690 C.3   318  PHE318      0.0574
    123  CG        71.0520   38.0520   37.5770 C.ar  318  PHE318     -0.0200
    124  CD1       70.0830   37.3820   36.8290 C.ar  318  PHE318     -0.0042
    125  CD2       71.1140   39.4400   37.5030 C.ar  318  PHE318     -0.0042
    126  CE1       69.2010   38.0820   36.0090 C.ar  318  PHE318     -0.0003
    127  CE2       70.2360   40.1500   36.6880 C.ar  318  PHE318     -0.0003
    128  CZ        69.2760   39.4690   35.9400 C.ar  318  PHE318     -0.0000
    129  N         72.8650   34.7750   36.6520 N.am  319  LEU319     -0.1977
    130  CA        72.4440   33.9360   35.5350 C.3   319  LEU319      0.1596
    131  C         71.1150   33.2710   35.8690 C.2   319  LEU319      0.2287
    132  O         70.7920   33.0790   37.0410 O.2   319  LEU319     -0.2864
    133  CB        73.4990   32.8750   35.2040 C.3   319  LEU319      0.0297
    134  CG        74.9740   33.2620   35.3030 C.3   319  LEU319      0.0022
    135  CD1       75.5940   32.6690   36.5620 C.3   319  LEU319      0.0001
    136  CD2       75.7260   32.8060   34.0830 C.3   319  LEU319      0.0001
    137  N         69.0200   35.3130   29.6310 N.3   329  LEU329     -0.1231
    138  CA        70.0010   34.3460   30.1270 C.3   329  LEU329      0.1693
    139  C         70.7050   34.8350   31.3950 C.2   329  LEU329      0.2593
    140  O         71.1220   34.0320   32.2300 O.2   329  LEU329     -0.2718
    141  CB        71.0320   34.0070   29.0430 C.3   329  LEU329      0.0284
    142  CG        70.5400   33.4510   27.7020 C.3   329  LEU329      0.0019
    143  CD1       71.6540   33.4900   26.6710 C.3   329  LEU329      0.0001
    144  CD2       69.9850   32.0410   27.8430 C.3   329  LEU329      0.0001
    145  N         70.8250   36.1530   31.5310 N.am  330  GLY330     -0.1942
    146  CA        71.4750   36.7650   32.6850 C.3   330  GLY330      0.2014
    147  C         72.0340   38.1380   32.3700 C.2   330  GLY330      0.2639
    148  O         71.8570   38.6450   31.2590 O.2   330  GLY330     -0.2714
    149  N         72.7190   38.7370   33.3440 N.am  331  ALA331     -0.1963
    150  CA        73.2400   40.0970   33.1900 C.3   331  ALA331      0.1728
    151  C         74.5240   40.3920   33.9740 C.2   331  ALA331      0.2616
    152  O         74.8180   39.7540   34.9850 O.2   331  ALA331     -0.2715
    153  CB        72.1560   41.1190   33.5430 C.3   331  ALA331      0.0334
    154  N         75.2950   41.3470   33.4580 N.am  332  ILE332     -0.1977
    155  CA        76.2730   42.0900   34.2450 C.3   332  ILE332      0.1596
    156  C         76.0490   43.5910   34.0700 C.2   332  ILE332      0.2287
    157  O         76.0870   44.1040   32.9520 O.2   332  ILE332     -0.2864
    158  CB        77.7010   41.7320   33.7900 C.3   332  ILE332      0.0276
    159  CG1       77.7380   40.3240   33.1920 C.3   332  ILE332      0.0022
    160  CG2       78.6820   41.8660   34.9430 C.3   332  ILE332      0.0022
    161  CD1       78.5420   40.2260   31.9120 C.3   332  ILE332      0.0001
    162  N         71.9920   39.4440   28.4400 N.3   352  MET352     -0.1245
    163  CA        72.2360   38.4660   27.3790 C.3   352  MET352      0.1570
    164  C         70.9620   37.7180   27.0160 C.2   352  MET352      0.2261
    165  O         70.3100   37.1300   27.8790 O.2   352  MET352     -0.2867
    166  CB        73.3300   37.4810   27.7920 C.3   352  MET352      0.0387
    167  CG        74.6160   38.1400   28.2500 C.3   352  MET352      0.0595
    168  SD        75.5160   38.9400   26.9190 S.3   352  MET352     -0.1393
    169  CE        76.9380   39.5790   27.8010 C.3   352  MET352      0.0692
    170  N         77.8000   31.9630   19.3270 N.3   399  ILE399     -0.1245
    171  CA        78.8530   31.1810   19.9690 C.3   399  ILE399      0.1561
    172  C         78.8020   29.7320   19.4820 C.2   399  ILE399      0.2260
    173  O         77.7370   29.1130   19.5000 O.2   399  ILE399     -0.2867
    174  CB        78.7140   31.2450   21.5100 C.3   399  ILE399      0.0252
    175  CG1       78.8390   32.6930   21.9890 C.3   399  ILE399      0.0019
    176  CG2       79.7470   30.3580   22.2010 C.3   399  ILE399      0.0019
    177  CD1       78.2350   32.9500   23.3480 C.3   399  ILE399      0.0001
    178  N         86.7340   28.2440   23.0760 N.3   433  VAL433     -0.1231
    179  CA        85.7980   29.3200   22.7520 C.3   433  VAL433      0.1692
    180  C         86.2660   30.6730   23.2840 C.2   433  VAL433      0.2592
    181  O         86.1200   31.6930   22.6100 O.2   433  VAL433     -0.2718
    182  CB        84.3660   28.9940   23.2660 C.3   433  VAL433      0.0266
    183  CG1       83.4580   30.2150   23.2060 C.3   433  VAL433      0.0020
    184  CG2       83.7600   27.8490   22.4610 C.3   433  VAL433      0.0020
    185  N         86.8330   30.6720   24.4880 N.am  434  GLY434     -0.1957
    186  CA        87.2400   31.9050   25.1600 C.3   434  GLY434      0.1869
    187  C         88.4510   32.5940   24.5570 C.2   434  GLY434      0.2309
    188  O         89.2110   31.9930   23.7930 O.2   434  GLY434     -0.2863
    189  N         91.2500   33.5330   26.1170 N.3   436  ASN436     -0.1240
    190  CA        92.4230   32.7760   26.5750 C.3   436  ASN436      0.1653
    191  C         92.7720   31.5920   25.6720 C.2   436  ASN436      0.2266
    192  O         93.9390   31.3940   25.3210 O.2   436  ASN436     -0.2867
    193  CB        92.2250   32.2760   28.0140 C.3   436  ASN436      0.1155
    194  CG        92.2150   33.3990   29.0390 C.2   436  ASN436      0.2627
    195  OD1       92.7080   34.5010   28.7870 O.2   436  ASN436     -0.2716
    196  ND2       91.6550   33.1190   30.2110 N.am  436  ASN436     -0.0877
@<TRIPOS>BOND
     1   170   171    1
     2   172   173    2
     3   172   171    1
     4    95    96    1
     5    98    97    2
     6   171   174    1
     7    97    96    1
     8    96    99    1
     9   101    99    1
    10   174   175    1
    11   174   176    1
    12    99   100    1
    13   175   177    1
    14   184   182    1
    15   181   180    2
    16   179   178    1
    17   179   182    1
    18   179   180    1
    19     7     6    1
    20     7     1    1
    21   183   182    1
    22   100   102    1
    23   180   185   am
    24     6     5    1
    25   188   187    2
    26     1     2    1
    27    85    84    2
    28   185   186    1
    29   187   186    1
    30     5     2    1
    31    84    83    1
    32   192   191    2
    33     2     3    1
    34    86    83    1
    35   191   190    1
    36     4     3    2
    37    83    82    1
    38   189   190    1
    39     3     8   am
    40   190   193    1
    41    77    76    2
    42   143   142    1
    43   168   169    1
    44   168   167    1
    45   164   163    1
    46   164   165    2
    47   163   166    1
    48   163   162    1
    49    76    75    1
    50     8     9    1
    51   142   144    1
    52   142   141    1
    53   166   167    1
    54   193   194    1
    55    15    13   am
    56    80    78    1
    57     9    10    1
    58     9    12    1
    59   195   194    2
    60    75    78    1
    61    75    74    1
    62    13    14    2
    63    13    12    1
    64   194   196   am
    65   141   138    1
    66    66    65    2
    67    78    79    1
    68    10    16   am
    69    10    11    2
    70    19    18    2
    71    16    17    1
    72   137   138    1
    73    26    27    1
    74    26    23    1
    75    68    67    1
    76    74    72   am
    77    29    27   ar
    78    29    31   ar
    79    73    72    2
    80    27    28   ar
    81    64    65    1
    82    64    67    1
    83    64    63    1
    84    65    70   am
    85   138   139    1
    86    18    17    1
    87    18    22   am
    88    72    71    1
    89    31    32   ar
    90    17    20    1
    91    67    69    1
    92    28    30   ar
    93    23    22    1
    94    23    24    1
    95    79    81    1
    96    32    30   ar
    97    70    71    1
    98   148   147    2
    99   139   145   am
   100   139   140    2
   101   145   146    1
   102   161   159    1
   103    20    21    1
   104    24    33   am
   105    24    25    2
   106   147   146    1
   107   147   149   am
   108    33    34    1
   109    36    35    2
   110    51    49    1
   111   157   156    2
   112   150   149    1
   113   150   153    1
   114   150   151    1
   115   159   158    1
   116    43    44    2
   117    43    42    1
   118   154   151   am
   119   154   155    1
   120    35    34    1
   121    34    37    1
   122    48    49    2
   123    48    47    1
   124   158   155    1
   125   158   160    1
   126    49    50    1
   127   151   152    2
   128    37    38    1
   129   156   155    1
   130   136   134    1
   131    41    42    1
   132    46    47    1
   133    46    45    1
   134    42    45    1
   135   113   111   ar
   136   113   112   ar
   137    40    38    1
   138    39    38    1
   139   133   134    1
   140   133   130    1
   141   111   109   ar
   142   134   135    1
   143    93    92    1
   144   121   120    2
   145   130   131    1
   146   130   129    1
   147    92    94    1
   148    92    91    1
   149   112   110   ar
   150   131   132    2
   151    89    88    1
   152    89    90    2
   153   128   126   ar
   154   128   127   ar
   155   126   124   ar
   156    88    91    1
   157    88    87    1
   158   120   129   am
   159   120   119    1
   160   109   108   ar
   161   127   125   ar
   162   124   123   ar
   163   110   108   ar
   164   106   105    2
   165   108   107    1
   166   125   123   ar
   167   118   119    1
   168   118   116   am
   169   123   122    1
   170   119   122    1
   171   115   116    1
   172   115   114    1
   173   105   114   am
   174   105   104    1
   175   116   117    2
   176   107   104    1
   177   104   103    1
   178    58    59    1
   179    58    57    1
   180    59    60    2
   181    56    57    1
   182    56    53    1
   183    60    62    1
   184    60    61    1
   185    53    54    1
   186    53    52    1
   187    54    55    2
