@<TRIPOS>MOLECULE
tmp/2ivfA00.pdb
 93 91 0 0 0
SMALL
GASTEIGER

@<TRIPOS>ATOM
      1  N         32.4480   53.4490   -4.7760 N.3    15  TRP15      -0.1241
      2  CA        32.8030   52.3830   -3.8840 C.3    15  TRP15       0.1605
      3  C         31.5640   51.6800   -3.3580 C.2    15  TRP15       0.2264
      4  O         30.5780   52.3000   -3.0030 O.2    15  TRP15      -0.2867
      5  CB        33.5680   52.9080   -2.6530 C.3    15  TRP15       0.0550
      6  CG        34.8950   53.4690   -2.9170 C.ar   15  TRP15       0.0003
      7  CD1       35.3450   54.6800   -2.5110 C.ar   15  TRP15       0.0946
      8  CD2       35.9550   52.8660   -3.6400 C.ar   15  TRP15       0.0152
      9  NE1       36.6600   54.8460   -2.8880 N.ar   15  TRP15      -0.2442
     10  CE2       37.0530   53.7490   -3.5880 C.ar   15  TRP15       0.0810
     11  CE3       36.1040   51.6350   -4.3020 C.ar   15  TRP15       0.0012
     12  CZ2       38.2620   53.4730   -4.2000 C.ar   15  TRP15       0.0191
     13  CZ3       37.3180   51.3620   -4.8900 C.ar   15  TRP15       0.0001
     14  CH2       38.3740   52.2610   -4.8270 C.ar   15  TRP15       0.0015
     15  N         36.0290   45.5560   -0.8490 N.3    29  LYS29      -0.1245
     16  CA        35.8300   46.7960   -1.5520 C.3    29  LYS29       0.1561
     17  C         35.5790   46.5220   -3.0370 C.2    29  LYS29       0.2260
     18  O         36.4010   45.8560   -3.6950 O.2    29  LYS29      -0.2867
     19  CB        37.0430   47.6860   -1.4100 C.3    29  LYS29       0.0271
     20  CG        36.7810   49.1260   -1.9500 C.3    29  LYS29       0.0035
     21  CD        37.8940   50.1170   -1.5410 C.3    29  LYS29       0.0206
     22  CE        39.2220   49.7780   -2.2340 C.3    29  LYS29       0.1093
     23  NZ        40.2240   50.8890   -2.2410 N.3    29  LYS29      -0.1314
     24  N         42.6230   46.1090   -3.7570 N.3    47  GLN47      -0.1231
     25  CA        43.5380   47.1310   -3.2700 C.3    47  GLN47       0.1698
     26  C         43.7600   46.9420   -1.7590 C.2    47  GLN47       0.2593
     27  O         43.8180   47.9130   -1.0080 O.2    47  GLN47      -0.2718
     28  CB        42.9590   48.5350   -3.5630 C.3    47  GLN47       0.0381
     29  CG        42.9320   48.8550   -5.0550 C.3    47  GLN47       0.0905
     30  CD        42.4120   50.2110   -5.3960 C.2    47  GLN47       0.2608
     31  OE1       41.5690   50.7650   -4.7290 O.2    47  GLN47      -0.2717
     32  NE2       42.9530   50.7760   -6.4580 N.am   47  GLN47      -0.0878
     33  N         43.9290   45.6960   -1.3420 N.am   48  THR48      -0.1940
     34  CA        44.1930   45.3830    0.0740 C.3    48  THR48       0.2013
     35  C         45.5450   44.6980    0.1780 C.2    48  THR48       0.2484
     36  O         45.6580   43.4900    0.0120 O.2    48  THR48      -0.2729
     37  CB        43.0920   44.5390    0.6690 C.3    48  THR48       0.1807
     38  OG1       41.8430   45.1460    0.3770 O.3    48  THR48      -0.2208
     39  CG2       43.2830   44.3640    2.1840 C.3    48  THR48       0.0379
     40  N         46.5960   45.4840    0.4040 N.am   49  PRO49      -0.2726
     41  CA        47.9520   44.9290    0.4740 C.3    49  PRO49       0.1402
     42  C         48.2190   43.9790    1.6460 C.2    49  PRO49       0.2269
     43  O         47.4400   43.9310    2.5690 O.2    49  PRO49      -0.2865
     44  CB        48.8320   46.1760    0.5920 C.3    49  PRO49       0.0296
     45  CG        48.0110   47.2700   -0.0030 C.3    49  PRO49       0.0237
     46  CD        46.6260   46.9480    0.5430 C.3    49  PRO49       0.0939
     47  N         39.7420   45.3770    8.1720 N.3   606  PHE606     -0.1241
     48  CA        39.6640   46.6730    7.4890 C.3   606  PHE606      0.1605
     49  C         38.2210   47.0260    7.3380 C.2   606  PHE606      0.2264
     50  O         37.3770   46.1350    7.0410 O.2   606  PHE606     -0.2867
     51  CB        40.3430   46.6590    6.0850 C.3   606  PHE606      0.0534
     52  CG        40.3630   45.3160    5.4120 C.ar  606  PHE606     -0.0203
     53  CD1       39.3150   44.8950    4.6050 C.ar  606  PHE606     -0.0042
     54  CD2       41.4610   44.4850    5.5470 C.ar  606  PHE606     -0.0042
     55  CE1       39.3370   43.6440    4.0020 C.ar  606  PHE606     -0.0003
     56  CE2       41.5070   43.2320    4.9650 C.ar  606  PHE606     -0.0003
     57  CZ        40.4520   42.8120    4.1490 C.ar  606  PHE606     -0.0000
     58  N         39.3870   56.8200   -0.3590 N.3   701  GLU701     -0.1245
     59  CA        40.1710   55.5940   -0.3740 C.3   701  GLU701      0.1567
     60  C         39.2790   54.3740   -0.4250 C.2   701  GLU701      0.2260
     61  O         39.6150   53.3530   -0.9830 O.2   701  GLU701     -0.2867
     62  CB        41.0100   55.5360    0.8940 C.3   701  GLU701      0.0388
     63  CG        41.8760   56.7300    1.0180 C.3   701  GLU701      0.1160
     64  CD        43.0250   56.5430    1.9600 C.2   701  GLU701      0.3649
     65  OE1       42.8760   55.7900    2.9390 O.co2 701  GLU701     -0.2457
     66  OE2       44.0670   57.1770    1.6660 O.co2 701  GLU701     -0.2457
     67  N         38.5250   52.2240    1.8270 N.3   703  GLN703     -0.1231
     68  CA        38.7490   51.2900    2.9220 C.3   703  GLN703      0.1698
     69  C         40.0230   51.6330    3.6650 C.2   703  GLN703      0.2593
     70  O         40.9230   52.2990    3.1460 O.2   703  GLN703     -0.2718
     71  CB        38.8380   49.8320    2.4370 C.3   703  GLN703      0.0381
     72  CG        40.0790   49.5720    1.7150 C.3   703  GLN703      0.0905
     73  CD        40.2200   48.0990    1.2960 C.2   703  GLN703      0.2608
     74  OE1       39.6250   47.7130    0.3010 O.2   703  GLN703     -0.2717
     75  NE2       41.0210   47.3030    2.0190 N.am  703  GLN703     -0.0878
     76  N         40.0830   51.1530    4.8990 N.am  704  THR704     -0.1939
     77  CA        41.2340   51.3170    5.7640 C.3   704  THR704      0.2028
     78  C         41.3160   50.2090    6.7980 C.2   704  THR704      0.2642
     79  O         40.3030   49.8200    7.3740 O.2   704  THR704     -0.2714
     80  CB        41.2550   52.7080    6.4970 C.3   704  THR704      0.1808
     81  OG1       42.5930   52.9360    6.9110 O.3   704  THR704     -0.2208
     82  CG2       40.3280   52.8130    7.7390 C.3   704  THR704      0.0379
     83  N         42.5310   49.7050    7.0110 N.am  705  ARG705     -0.1977
     84  CA        42.8160   48.8110    8.1450 C.3   705  ARG705      0.1597
     85  C         42.4830   49.4710    9.4610 C.2   705  ARG705      0.2287
     86  O         42.7880   50.6270    9.6900 O.2   705  ARG705     -0.2864
     87  CB        44.2950   48.3980    8.1380 C.3   705  ARG705      0.0334
     88  CG        44.5540   47.2070    7.2710 C.3   705  ARG705      0.0492
     89  CD        45.9640   47.1150    7.0020 C.3   705  ARG705      0.2205
     90  NE        46.4070   45.7640    6.7250 N.pl3 705  ARG705     -0.0865
     91  CZ        46.5870   45.2260    5.5220 C.cat 705  ARG705      0.5346
     92  NH1       46.1860   45.8440    4.4390 N.pl3 705  ARG705      0.1354
     93  NH2       47.1270   44.0200    5.4430 N.pl3 705  ARG705      0.1354
@<TRIPOS>BOND
     1    32    30   am
     2    30    29    1
     3    30    31    2
     4    29    28    1
     5    13    14   ar
     6    13    11   ar
     7    14    12   ar
     8     1     2    1
     9    11     8   ar
    10    12    10   ar
    11     2     3    1
    12     2     5    1
    13    24    25    1
    14    18    17    2
    15     8    10   ar
    16     8     6   ar
    17    10     9   ar
    18    28    25    1
    19     3     4    2
    20    25    26    1
    21    17    16    1
    22     6     5    1
    23     6     7   ar
    24     9     7   ar
    25    23    22    1
    26    22    21    1
    27    20    21    1
    28    20    19    1
    29    26    33   am
    30    26    27    2
    31    16    19    1
    32    16    15    1
    33    33    34    1
    34    61    60    2
    35    60    59    1
    36    59    58    1
    37    59    62    1
    38    45    46    1
    39    45    44    1
    40    36    35    2
    41    34    35    1
    42    34    37    1
    43    35    40   am
    44    74    73    2
    45    38    37    1
    46    40    41    1
    47    40    46    1
    48    41    44    1
    49    41    42    1
    50    37    39    1
    51    62    63    1
    52    63    64    1
    53    73    72    1
    54    73    75   am
    55    42    43    2
    56    66    64   ar
    57    72    71    1
    58    67    68    1
    59    64    65   ar
    60    71    68    1
    61    68    69    1
    62    70    69    2
    63    69    76   am
    64    55    57   ar
    65    55    53   ar
    66    57    56   ar
    67    92    91    1
    68    53    52   ar
    69    76    77    1
    70    56    54   ar
    71    52    54   ar
    72    52    51    1
    73    93    91    1
    74    91    90    2
    75    77    80    1
    76    77    78    1
    77    51    48    1
    78    80    81    1
    79    80    82    1
    80    90    89    1
    81    78    83   am
    82    78    79    2
    83    89    88    1
    84    83    84    1
    85    50    49    2
    86    88    87    1
    87    49    48    1
    88    48    47    1
    89    87    84    1
    90    84    85    1
    91    85    86    2
