@<TRIPOS>MOLECULE
tmp/2iviA00.pdb
 202 186 0 0 0
SMALL
GASTEIGER

@<TRIPOS>ATOM
      1  N         21.0260   35.8620   10.8640 N.3    85  ARG85      -0.1245
      2  CA        20.0060   35.4080    9.9050 C.3    85  ARG85       0.1563
      3  C         19.3660   34.0740   10.2610 C.2    85  ARG85       0.2260
      4  O         18.1480   33.9390   10.2040 O.2    85  ARG85      -0.2867
      5  CB        20.6210   35.2540    8.5120 C.3    85  ARG85       0.0307
      6  CG        21.1510   36.5590    7.9090 C.3    85  ARG85       0.0489
      7  CD        21.7880   36.3110    6.5450 C.3    85  ARG85       0.2205
      8  NE        20.7710   36.0120    5.5410 N.pl3  85  ARG85      -0.0865
      9  CZ        21.0070   35.4950    4.3360 C.cat  85  ARG85       0.5346
     10  NH1       22.2330   35.1770    3.9400 N.pl3  85  ARG85       0.1354
     11  NH2       19.9870   35.2830    3.5020 N.pl3  85  ARG85       0.1354
     12  N         13.0170   32.8530   15.2830 N.3    89  TYR89      -0.1241
     13  CA        12.5600   34.2110   15.4800 C.3    89  TYR89       0.1605
     14  C         11.2900   34.0750   16.3070 C.2    89  TYR89       0.2264
     15  O         10.2680   33.6040   15.8110 O.2    89  TYR89      -0.2867
     16  CB        12.2190   34.8830   14.1420 C.3    89  TYR89       0.0534
     17  CG        13.3790   35.1550   13.1780 C.ar   89  TYR89      -0.0201
     18  CD1       14.2860   34.1640   12.8240 C.ar   89  TYR89      -0.0009
     19  CD2       13.4980   36.3820   12.5480 C.ar   89  TYR89      -0.0009
     20  CE1       15.3140   34.4100   11.9260 C.ar   89  TYR89       0.0417
     21  CE2       14.5130   36.6350   11.6460 C.ar   89  TYR89       0.0417
     22  CZ        15.4200   35.6470   11.3230 C.ar   89  TYR89       0.1957
     23  OH        16.4350   35.9220   10.4230 O.3    89  TYR89      -0.2866
     24  N         14.4890   30.4060   10.1310 N.3   102  CYS102     -0.1235
     25  CA        15.1970   30.7250    8.9160 C.3   102  CYS102      0.1677
     26  C         16.4380   29.8430    8.7980 C.2   102  CYS102      0.2270
     27  O         17.1540   29.6470    9.7840 O.2   102  CYS102     -0.2867
     28  CB        15.6070   32.1960    8.9180 C.3   102  CYS102      0.0956
     29  SG        16.6590   32.7120    7.5000 S.3   102  CYS102     -0.0801
     30  N         17.8330   32.1380    1.1800 N.3   181  SER181     -0.1217
     31  CA        17.3160   31.6660    2.4500 C.3   181  SER181      0.1889
     32  C         15.9050   31.0990    2.2920 C.2   181  SER181      0.2288
     33  O         15.1400   31.5450    1.4360 O.2   181  SER181     -0.2866
     34  CB        17.2980   32.7910    3.4810 C.3   181  SER181      0.2089
     35  OG        16.4310   33.8110    3.0490 O.3   181  SER181     -0.2183
     36  N         12.5540   30.7260    4.7790 N.3   183  VAL183     -0.1245
     37  CA        11.9560   31.0960    6.0530 C.3   183  VAL183      0.1561
     38  C         10.6480   30.3330    6.2110 C.2   183  VAL183      0.2260
     39  O          9.7810   30.3950    5.3450 O.2   183  VAL183     -0.2867
     40  CB        11.7060   32.6100    6.1910 C.3   183  VAL183      0.0252
     41  CG1       11.3110   32.9460    7.6410 C.3   183  VAL183      0.0019
     42  CG2       12.9390   33.3830    5.7940 C.3   183  VAL183      0.0019
     43  N          7.5640   30.5380    8.1600 N.3   185  ILE185     -0.1245
     44  CA         6.8250   31.4840    8.9970 C.3   185  ILE185      0.1561
     45  C          5.5010   30.8900    9.4320 C.2   185  ILE185      0.2260
     46  O          4.7250   30.3800    8.6150 O.2   185  ILE185     -0.2867
     47  CB         6.5420   32.8150    8.2710 C.3   185  ILE185      0.0252
     48  CG1        7.8120   33.4080    7.6660 C.3   185  ILE185      0.0019
     49  CG2        5.8910   33.8030    9.2270 C.3   185  ILE185      0.0019
     50  CD1        7.5370   34.5380    6.6750 C.3   185  ILE185      0.0001
     51  N          2.0370   32.0370   11.0900 N.3   187  TYR187     -0.1241
     52  CA         1.0940   33.0590   11.4970 C.3   187  TYR187      0.1605
     53  C         -0.0130   32.3470   12.2640 C.2   187  TYR187      0.2264
     54  O         -0.7020   31.5130   11.7030 O.2   187  TYR187     -0.2867
     55  CB         0.5270   33.7820   10.2730 C.3   187  TYR187      0.0534
     56  CG         1.3890   34.9070    9.7560 C.ar  187  TYR187     -0.0201
     57  CD1        1.3650   36.1450   10.3710 C.ar  187  TYR187     -0.0009
     58  CD2        2.2300   34.7370    8.6540 C.ar  187  TYR187     -0.0009
     59  CE1        2.1300   37.1920    9.9160 C.ar  187  TYR187      0.0417
     60  CE2        2.9880   35.8050    8.1710 C.ar  187  TYR187      0.0417
     61  CZ         2.9490   37.0270    8.8350 C.ar  187  TYR187      0.1957
     62  OH         3.6810   38.1290    8.4110 O.3   187  TYR187     -0.2866
     63  N          2.1840   42.9500    8.4140 N.3   209  PHE209     -0.1241
     64  CA         3.4980   43.4120    7.9450 C.3   209  PHE209      0.1605
     65  C          3.2630   44.5210    6.9350 C.2   209  PHE209      0.2264
     66  O          2.4280   44.3910    6.0380 O.2   209  PHE209     -0.2867
     67  CB         4.3060   42.2580    7.3310 C.3   209  PHE209      0.0534
     68  CG         5.7780   42.5470    7.1720 C.ar  209  PHE209     -0.0203
     69  CD1        6.6280   42.5460    8.2670 C.ar  209  PHE209     -0.0042
     70  CD2        6.3180   42.7940    5.9240 C.ar  209  PHE209     -0.0042
     71  CE1        8.0020   42.8040    8.1100 C.ar  209  PHE209     -0.0003
     72  CE2        7.6780   43.0460    5.7630 C.ar  209  PHE209     -0.0003
     73  CZ         8.5130   43.0490    6.8500 C.ar  209  PHE209     -0.0000
     74  N          6.4640   47.1430    1.6650 N.3   212  HIS212     -0.1241
     75  CA         7.8860   47.0170    1.4390 C.3   212  HIS212      0.1621
     76  C          8.1240   46.5140    0.0280 C.2   212  HIS212      0.2264
     77  O          7.2190   46.0040   -0.6280 O.2   212  HIS212     -0.2867
     78  CB         8.4880   46.0230    2.4400 C.3   212  HIS212      0.0745
     79  CG         7.9740   44.6300    2.2710 C.ar  212  HIS212      0.0817
     80  ND1        6.7020   44.2590    2.6480 N.ar  212  HIS212     -0.2268
     81  CD2        8.5230   43.5410    1.6700 C.ar  212  HIS212      0.1154
     82  CE1        6.5010   42.9930    2.3180 C.ar  212  HIS212      0.1986
     83  NE2        7.5890   42.5330    1.7220 N.ar  212  HIS212     -0.2212
     84  N         10.8910   43.7020   -1.7210 N.3   214  ASP214     -0.1225
     85  CA        11.6930   42.5840   -1.2500 C.3   214  ASP214      0.1805
     86  C         13.1800   42.8290   -1.4200 C.2   214  ASP214      0.2597
     87  O         13.6150   43.4330   -2.4040 O.2   214  ASP214     -0.2718
     88  CB        11.3440   41.3030   -1.9890 C.3   214  ASP214      0.1424
     89  CG        10.0470   40.7110   -1.5310 C.2   214  ASP214      0.3668
     90  OD1        9.4310   41.3160   -0.6300 O.co2 214  ASP214     -0.2456
     91  OD2        9.6390   39.6620   -2.0580 O.co2 214  ASP214     -0.2456
     92  N         13.9410   42.3170   -0.4540 N.am  215  VAL215     -0.1980
     93  CA        15.3840   42.2190   -0.5470 C.3   215  VAL215      0.1595
     94  C         15.6770   40.8400   -1.1470 C.2   215  VAL215      0.2287
     95  O         15.7400   39.8370   -0.4300 O.2   215  VAL215     -0.2864
     96  CB        16.0670   42.4250    0.8170 C.3   215  VAL215      0.0276
     97  CG1       17.5780   42.4010    0.6610 C.3   215  VAL215      0.0022
     98  CG2       15.6240   43.7420    1.4400 C.3   215  VAL215      0.0022
     99  N         11.6380   36.4080   -5.4060 N.3   219  THR219     -0.1218
    100  CA        11.1120   35.7280   -4.2350 C.3   219  THR219      0.1862
    101  C         10.1710   34.6390   -4.7340 C.2   219  THR219      0.2287
    102  O          9.3720   34.8820   -5.6390 O.2   219  THR219     -0.2866
    103  CB        10.3850   36.7260   -3.3300 C.3   219  THR219      0.1770
    104  OG1       11.3310   37.7370   -2.9390 O.3   219  THR219     -0.2211
    105  CG2        9.7870   36.0350   -2.0960 C.3   219  THR219      0.0375
    106  N          7.5390   31.9210   -3.3670 N.3   221  LEU221     -0.1245
    107  CA         6.7730   31.8100   -2.1240 C.3   221  LEU221      0.1561
    108  C          5.6540   30.7890   -2.1620 C.2   221  LEU221      0.2260
    109  O          4.8310   30.8140   -3.0680 O.2   221  LEU221     -0.2867
    110  CB         6.1630   33.1810   -1.7920 C.3   221  LEU221      0.0270
    111  CG         5.1830   33.2760   -0.6300 C.3   221  LEU221      0.0019
    112  CD1        5.8850   33.0210    0.6910 C.3   221  LEU221      0.0001
    113  CD2        4.5660   34.6740   -0.6390 C.3   221  LEU221      0.0001
    114  N          2.3960   29.7630    0.1950 N.3   223  GLN223     -0.1245
    115  CA         1.5390   30.1120    1.3320 C.3   223  GLN223      0.1566
    116  C          0.3120   29.2210    1.3870 C.2   223  GLN223      0.2260
    117  O         -0.1540   28.7240    0.3500 O.2   223  GLN223     -0.2867
    118  CB         1.0480   31.5660    1.2620 C.3   223  GLN223      0.0367
    119  CG         2.1310   32.6200    1.2140 C.3   223  GLN223      0.0905
    120  CD         1.5980   33.9860    1.5540 C.2   223  GLN223      0.2608
    121  OE1        2.1610   34.7060    2.4060 O.2   223  GLN223     -0.2717
    122  NE2        0.5130   34.3620    0.9020 N.am  223  GLN223     -0.0878
    123  N         -2.0940   38.7040    1.0060 N.3   229  LEU229     -0.1245
    124  CA        -1.1860   39.6430    0.3860 C.3   229  LEU229      0.1561
    125  C         -1.9070   40.6890   -0.4390 C.2   229  LEU229      0.2260
    126  O         -2.9340   40.4110   -1.0730 O.2   229  LEU229     -0.2867
    127  CB        -0.1840   38.9080   -0.5060 C.3   229  LEU229      0.0270
    128  CG         0.8610   38.0730    0.2270 C.3   229  LEU229      0.0019
    129  CD1        1.6780   37.2470   -0.7550 C.3   229  LEU229      0.0001
    130  CD2        1.7570   38.9620    1.0690 C.3   229  LEU229      0.0001
    131  N          4.3390   45.6600   -1.6770 N.3   268  HIS268     -0.1241
    132  CA         3.2760   44.7910   -1.2020 C.3   268  HIS268      0.1621
    133  C          3.2860   44.7530    0.3200 C.2   268  HIS268      0.2264
    134  O          4.2300   45.2190    0.9620 O.2   268  HIS268     -0.2867
    135  CB         3.4060   43.3900   -1.8330 C.3   268  HIS268      0.0745
    136  CG         4.7270   42.7440   -1.5830 C.ar  268  HIS268      0.0817
    137  ND1        5.8810   43.1320   -2.2210 N.ar  268  HIS268     -0.2268
    138  CD2        5.0880   41.7760   -0.7070 C.ar  268  HIS268      0.1154
    139  CE1        6.8940   42.4060   -1.7710 C.ar  268  HIS268      0.1986
    140  NE2        6.4370   41.5720   -0.8530 N.ar  268  HIS268     -0.2212
    141  N          1.1760   42.6580    3.9620 N.3   270  VAL270     -0.1245
    142  CA         0.5000   41.4800    4.4750 C.3   270  VAL270      0.1561
    143  C         -0.6480   41.9270    5.3710 C.2   270  VAL270      0.2260
    144  O         -0.4310   42.5390    6.4260 O.2   270  VAL270     -0.2867
    145  CB         1.4550   40.5980    5.3160 C.3   270  VAL270      0.0252
    146  CG1        0.7030   39.4160    5.8950 C.3   270  VAL270      0.0019
    147  CG2        2.6520   40.1230    4.4990 C.3   270  VAL270      0.0019
    148  N          3.5410   30.8530    5.7970 N.3   279  SER279     -0.1217
    149  CA         4.1360   31.6560    4.7470 C.3   279  SER279      0.1889
    150  C          5.5890   31.2170    4.6300 C.2   279  SER279      0.2288
    151  O          6.3460   31.3470    5.5730 O.2   279  SER279     -0.2866
    152  CB         4.0140   33.1300    5.0990 C.3   279  SER279      0.2089
    153  OG         4.4740   33.9290    4.0240 O.3   279  SER279     -0.2183
    154  N          8.5610   31.6560    2.2900 N.3   281  PRO281     -0.2116
    155  CA         9.3550   32.2410    1.2210 C.3   281  PRO281      0.1372
    156  C         10.7460   31.6280    1.0470 C.2   281  PRO281      0.2244
    157  O         11.3860   31.2180    2.0160 O.2   281  PRO281     -0.2868
    158  CB         9.4960   33.7050    1.6810 C.3   281  PRO281      0.0268
    159  CG         9.4850   33.6240    3.1600 C.3   281  PRO281      0.0207
    160  CD         8.4570   32.5680    3.4460 C.3   281  PRO281      0.0892
    161  N         14.0210   33.2960   -0.6350 N.3   283  PHE283     -0.1241
    162  CA        14.5720   34.5120   -1.1890 C.3   283  PHE283      0.1605
    163  C         15.7490   34.1400   -2.0540 C.2   283  PHE283      0.2264
    164  O         16.7570   33.6440   -1.5540 O.2   283  PHE283     -0.2867
    165  CB        14.9420   35.4860   -0.0630 C.3   283  PHE283      0.0534
    166  CG        13.7540   35.9360    0.7530 C.ar  283  PHE283     -0.0203
    167  CD1       12.8100   36.7640    0.1890 C.ar  283  PHE283     -0.0042
    168  CD2       13.5570   35.4930    2.0590 C.ar  283  PHE283     -0.0042
    169  CE1       11.6990   37.1830    0.8970 C.ar  283  PHE283     -0.0003
    170  CE2       12.4510   35.8980    2.7750 C.ar  283  PHE283     -0.0003
    171  CZ        11.5160   36.7410    2.1870 C.ar  283  PHE283     -0.0000
    172  N         18.8050   34.8360   -3.6290 N.3   285  ASN285     -0.1240
    173  CA        19.9610   35.7070   -3.4790 C.3   285  ASN285      0.1653
    174  C         21.1200   35.0750   -4.2310 C.2   285  ASN285      0.2266
    175  O         21.2120   33.8480   -4.3170 O.2   285  ASN285     -0.2867
    176  CB        20.3090   35.8400   -1.9800 C.3   285  ASN285      0.1155
    177  CG        19.2250   36.5450   -1.1770 C.2   285  ASN285      0.2627
    178  OD1       18.5930   37.4860   -1.6610 O.2   285  ASN285     -0.2716
    179  ND2       18.9970   36.0760    0.0550 N.am  285  ASN285     -0.0877
    180  N         18.7890   43.9480    4.3640 N.3   319  LEU319     -0.1245
    181  CA        18.1660   43.2320    5.4680 C.3   319  LEU319      0.1561
    182  C         18.1070   44.1050    6.7150 C.2   319  LEU319      0.2260
    183  O         17.0890   44.1180    7.4240 O.2   319  LEU319     -0.2867
    184  CB        18.8600   41.9000    5.7450 C.3   319  LEU319      0.0270
    185  CG        18.7240   40.8540    4.6230 C.3   319  LEU319      0.0019
    186  CD1       19.3630   39.5500    5.0500 C.3   319  LEU319      0.0001
    187  CD2       17.2440   40.6300    4.2130 C.3   319  LEU319      0.0001
    188  N         15.3460   46.7980    6.0850 N.3   322  LEU322     -0.1245
    189  CA        13.9980   46.2510    6.2000 C.3   322  LEU322      0.1561
    190  C         13.6010   46.0780    7.6730 C.2   322  LEU322      0.2260
    191  O         12.4580   46.3450    8.0450 O.2   322  LEU322     -0.2867
    192  CB        13.8730   44.9420    5.4170 C.3   322  LEU322      0.0270
    193  CG        12.4820   44.3150    5.3480 C.3   322  LEU322      0.0019
    194  CD1       11.4750   45.2750    4.7340 C.3   322  LEU322      0.0001
    195  CD2       12.5710   43.0370    4.5360 C.3   322  LEU322      0.0001
    196  N         11.3740   40.8730   12.8400 N.3   329  THR329     -0.1218
    197  CA        10.4080   39.7910   12.7300 C.3   329  THR329      0.1862
    198  C         10.7710   38.6440   13.6600 C.2   329  THR329      0.2287
    199  O         10.0000   37.6690   13.6860 O.2   329  THR329     -0.2866
    200  CB        10.2990   39.2510   11.2780 C.3   329  THR329      0.1770
    201  OG1       11.5450   38.6760   10.8680 O.3   329  THR329     -0.2211
    202  CG2        9.8750   40.3690   10.2960 C.3   329  THR329      0.0375
@<TRIPOS>BOND
     1   102   101    2
     2    99   100    1
     3   101   100    1
     4   175   174    2
     5   100   103    1
     6   174   173    1
     7   172   173    1
     8   173   176    1
     9   106   107    1
    10   103   104    1
    11   103   105    1
    12   109   108    2
    13    87    86    2
    14   137   139   ar
    15   137   136   ar
    16   108   107    1
    17   107   110    1
    18    91    89   ar
    19   163   164    2
    20   163   162    1
    21    88    89    1
    22    88    85    1
    23   176   177    1
    24   135   136    1
    25   135   132    1
    26   110   111    1
    27   139   140   ar
    28    84    85    1
    29   131   132    1
    30   178   177    2
    31   136   138   ar
    32    89    90   ar
    33    86    85    1
    34    86    92   am
    35   132   133    1
    36   162   161    1
    37   162   165    1
    38   177   179   am
    39    94    93    1
    40    94    95    2
    41   126   125    2
    42   140   138   ar
    43   129   128    1
    44   113   111    1
    45   111   112    1
    46    77    76    2
    47    93    92    1
    48    93    96    1
    49   127   128    1
    50   127   124    1
    51   125   124    1
    52   165   166    1
    53    76    75    1
    54   167   166   ar
    55   167   169   ar
    56   114   115    1
    57   128   130    1
    58   133   134    2
    59   117   116    2
    60   124   123    1
    61    97    96    1
    62   166   168   ar
    63    96    98    1
    64   169   171   ar
    65   122   120   am
    66   156   155    1
    67   156   157    2
    68    30    31    1
    69   119   118    1
    70   119   120    1
    71   155   158    1
    72   155   154    1
    73   118   115    1
    74   115   116    1
    75    33    32    2
    76    75    74    1
    77    75    78    1
    78   120   121    2
    79    81    83   ar
    80    81    79   ar
    81   158   159    1
    82    83    82   ar
    83   168   170   ar
    84   171   170   ar
    85    79    78    1
    86    79    80   ar
    87   154   160    1
    88    32    31    1
    89    82    80   ar
    90    31    34    1
    91    35    34    1
    92   159   160    1
    93    11     9    1
    94    10     9    1
    95   141   142    1
    96   153   152    1
    97   187   185    1
    98     9     8    2
    99   180   181    1
   100   142   145    1
   101   142   143    1
   102   147   145    1
   103   195   193    1
   104   185   186    1
   105   185   184    1
   106   150   149    1
   107   150   151    2
   108   194   193    1
   109   149   152    1
   110   149   148    1
   111    36    37    1
   112   145   146    1
   113    39    38    2
   114   193   192    1
   115   143   144    2
   116   192   189    1
   117   181   184    1
   118   181   182    1
   119     8     7    1
   120    72    70   ar
   121    72    73   ar
   122    42    40    1
   123    70    68   ar
   124    66    65    2
   125    37    40    1
   126    37    38    1
   127   188   189    1
   128    40    41    1
   129   189   190    1
   130     7     6    1
   131    50    48    1
   132   182   183    2
   133    73    71   ar
   134    65    64    1
   135    68    67    1
   136    68    69   ar
   137    67    64    1
   138    29    28    1
   139    48    47    1
   140   190   191    2
   141     6     5    1
   142    64    63    1
   143    71    69   ar
   144    43    44    1
   145    60    58   ar
   146    60    61   ar
   147    47    44    1
   148    47    49    1
   149    62    61    1
   150     5     2    1
   151    46    45    2
   152    58    56   ar
   153    26    25    1
   154    26    27    2
   155    61    59   ar
   156    25    28    1
   157    25    24    1
   158    44    45    1
   159    56    55    1
   160    56    57   ar
   161     2     3    1
   162     2     1    1
   163    59    57   ar
   164     4     3    2
   165    55    52    1
   166   202   200    1
   167    23    22    1
   168   201   200    1
   169    51    52    1
   170   200   197    1
   171    22    21   ar
   172    22    20   ar
   173    52    53    1
   174    21    19   ar
   175    54    53    2
   176    20    18   ar
   177    19    17   ar
   178   197   196    1
   179   197   198    1
   180    18    17   ar
   181    17    16    1
   182   198   199    2
   183    16    13    1
   184    12    13    1
   185    13    14    1
   186    15    14    2
