@<TRIPOS>MOLECULE
tmp/2ivnA00.pdb
 199 193 0 0 0
SMALL
GASTEIGER

@<TRIPOS>ATOM
      1  N         10.8740   64.1590    0.9710 N.3     9  THR9       -0.1203
      2  CA        11.2480   65.2250    1.9080 C.3     9  THR9        0.1994
      3  C         11.8570   64.6770    3.1980 C.2     9  THR9        0.2618
      4  O         12.6460   65.3580    3.8590 O.2     9  THR9       -0.2717
      5  CB        10.0480   66.1350    2.2730 C.3     9  THR9        0.1784
      6  OG1        9.0090   65.3570    2.8790 O.3     9  THR9       -0.2211
      7  CG2        9.4980   66.8330    1.0370 C.3     9  THR9        0.0376
      8  N         11.4800   63.4490    3.5480 N.am   10  ALA10      -0.1965
      9  CA        11.9310   62.8100    4.7810 C.3    10  ALA10       0.1728
     10  C         12.3270   61.3510    4.5300 C.2    10  ALA10       0.2616
     11  O         13.0350   61.0620    3.5650 O.2    10  ALA10      -0.2715
     12  CB        10.8570   62.9220    5.8630 C.3    10  ALA10       0.0334
     13  N         11.8710   60.4370    5.3860 N.am   11  HIS11      -0.1959
     14  CA        12.2920   59.0340    5.3100 C.3    11  HIS11       0.1787
     15  C         11.5920   58.2140    4.2260 C.2    11  HIS11       0.2620
     16  O         12.0790   57.1500    3.8400 O.2    11  HIS11      -0.2715
     17  CB        12.1420   58.3440    6.6700 C.3    11  HIS11       0.0785
     18  CG        12.9710   58.9570    7.7550 C.ar   11  HIS11       0.0821
     19  ND1       12.5710   58.9740    9.0730 N.ar   11  HIS11      -0.2267
     20  CD2       14.1710   59.5840    7.7170 C.ar   11  HIS11       0.1154
     21  CE1       13.4930   59.5780    9.8020 C.ar   11  HIS11       0.1986
     22  NE2       14.4730   59.9590    9.0030 N.ar   11  HIS11      -0.2212
     23  N         10.4560   58.7050    3.7420 N.am   12  THR12      -0.1951
     24  CA         9.6920   57.9970    2.7200 C.3    12  THR12       0.1897
     25  C         10.0520   58.4690    1.3160 C.2    12  THR12       0.2313
     26  O         10.0370   59.6710    1.0310 O.2    12  THR12      -0.2863
     27  CB         8.1650   58.1490    2.9440 C.3    12  THR12       0.1794
     28  OG1        7.8040   57.5450    4.1920 O.3    12  THR12      -0.2208
     29  CG2        7.3690   57.4840    1.8230 C.3    12  THR12       0.0378
     30  N          5.6210   70.5780   -0.4000 N.3   107  HIS107     -0.1241
     31  CA         5.1580   69.3470    0.2440 C.3   107  HIS107      0.1621
     32  C          3.8730   69.5360    1.0610 C.2   107  HIS107      0.2264
     33  O          2.9540   68.7170    0.9880 O.2   107  HIS107     -0.2867
     34  CB         6.2900   68.7980    1.1210 C.3   107  HIS107      0.0745
     35  CG         5.9230   67.5830    1.9120 C.ar  107  HIS107      0.0817
     36  ND1        5.9600   66.3100    1.3850 N.ar  107  HIS107     -0.2268
     37  CD2        5.5370   67.4450    3.2020 C.ar  107  HIS107      0.1154
     38  CE1        5.6020   65.4410    2.3140 C.ar  107  HIS107      0.1986
     39  NE2        5.3380   66.1050    3.4250 N.ar  107  HIS107     -0.2212
     40  N         -3.0120   69.7730    8.6140 N.3   127  TYR127     -0.1241
     41  CA        -1.9250   68.9170    8.1780 C.3   127  TYR127      0.1605
     42  C         -1.0740   68.5130    9.3770 C.2   127  TYR127      0.2264
     43  O         -0.4190   69.3480   10.0030 O.2   127  TYR127     -0.2867
     44  CB        -1.1110   69.6180    7.0810 C.3   127  TYR127      0.0534
     45  CG         0.2350   69.0050    6.7760 C.ar  127  TYR127     -0.0201
     46  CD1        0.3980   67.6200    6.6670 C.ar  127  TYR127     -0.0009
     47  CD2        1.3460   69.8170    6.5710 C.ar  127  TYR127     -0.0009
     48  CE1        1.6400   67.0650    6.3890 C.ar  127  TYR127      0.0417
     49  CE2        2.5860   69.2760    6.2830 C.ar  127  TYR127      0.0417
     50  CZ         2.7280   67.9020    6.1950 C.ar  127  TYR127      0.1957
     51  OH         3.9620   67.3760    5.9100 O.3   127  TYR127     -0.2866
     52  N          1.7050   65.5760   10.8130 N.3   129  SER129     -0.1202
     53  CA         2.6350   64.4940   10.5160 C.3   129  SER129      0.2020
     54  C          3.6660   64.3790   11.6290 C.2   129  SER129      0.2619
     55  O          3.4860   64.9520   12.7050 O.2   129  SER129     -0.2717
     56  CB         3.3190   64.7410    9.1700 C.3   129  SER129      0.2103
     57  OG         4.2000   65.8490    9.2390 O.3   129  SER129     -0.2182
     58  N          4.7430   63.6430   11.3610 N.am  130  GLY130     -0.1942
     59  CA         5.8490   63.5200   12.3010 C.3   130  GLY130      0.2014
     60  C          6.4690   64.8670   12.6070 C.2   130  GLY130      0.2639
     61  O          6.4290   65.3250   13.7500 O.2   130  GLY130     -0.2714
     62  N          7.0110   65.5120   11.5760 N.am  131  GLY131     -0.1939
     63  CA         7.7520   66.7630   11.7410 C.3   131  GLY131      0.2014
     64  C          6.9670   68.0310   11.4550 C.2   131  GLY131      0.2638
     65  O          7.4210   69.1310   11.7840 O.2   131  GLY131     -0.2714
     66  N          5.7950   67.8840   10.8420 N.am  132  ASN132     -0.1972
     67  CA         4.9570   69.0350   10.5090 C.3   132  ASN132      0.1688
     68  C          3.6140   69.0400   11.2280 C.2   132  ASN132      0.2292
     69  O          3.0140   67.9880   11.4610 O.2   132  ASN132     -0.2864
     70  CB         4.7260   69.1230    8.9970 C.3   132  ASN132      0.1181
     71  CG         6.0100   69.3320    8.2140 C.2   132  ASN132      0.2629
     72  OD1        6.2540   68.6540    7.2180 O.2   132  ASN132     -0.2716
     73  ND2        6.8360   70.2750    8.6590 N.am  132  ASN132     -0.0877
     74  N          3.0720   64.2620   15.4680 N.3   155  GLY155     -0.1225
     75  CA         3.5440   62.8980   15.2360 C.3   155  GLY155      0.1811
     76  C          4.8250   62.6000   15.9910 C.2   155  GLY155      0.2280
     77  O          4.9220   61.5750   16.6720 O.2   155  GLY155     -0.2866
     78  N          4.2040   62.3950   19.7720 N.3   158  ILE158     -0.1231
     79  CA         3.6500   61.0780   20.0940 C.3   158  ILE158      0.1692
     80  C          4.7290   59.9860   20.0140 C.2   158  ILE158      0.2592
     81  O          4.7780   59.0930   20.8700 O.2   158  ILE158     -0.2718
     82  CB         2.4310   60.7350   19.1910 C.3   158  ILE158      0.0266
     83  CG1        1.2950   61.7440   19.4140 C.3   158  ILE158      0.0019
     84  CG2        1.9380   59.3180   19.4680 C.3   158  ILE158      0.0020
     85  CD1        0.2380   61.7560   18.3140 C.3   158  ILE158      0.0001
     86  N          5.5950   60.0760   19.0010 N.am  159  ASP159     -0.1974
     87  CA         6.6930   59.1180   18.8080 C.3   159  ASP159      0.1709
     88  C          7.6820   59.1140   19.9750 C.2   159  ASP159      0.2293
     89  O          8.1330   58.0490   20.4080 O.2   159  ASP159     -0.2864
     90  CB         7.4460   59.3980   17.5020 C.3   159  ASP159      0.1436
     91  CG         6.6180   59.0950   16.2620 C.2   159  ASP159      0.3671
     92  OD1        5.6760   58.2730   16.3370 O.co2 159  ASP159     -0.2456
     93  OD2        6.9210   59.6840   15.2020 O.co2 159  ASP159     -0.2456
     94  N          8.9280   52.7360   17.0580 N.3   169  PHE169     -0.1228
     95  CA         8.4270   53.4920   15.9150 C.3   169  PHE169      0.1721
     96  C          7.6690   52.5850   14.9380 C.2   169  PHE169      0.2437
     97  O          8.1170   51.4670   14.6700 O.2   169  PHE169     -0.2733
     98  CB         9.5920   54.1880   15.2070 C.3   169  PHE169      0.0547
     99  CG         9.1660   55.1680   14.1540 C.ar  169  PHE169     -0.0202
    100  CD1        8.8910   56.4910   14.4880 C.ar  169  PHE169     -0.0042
    101  CD2        9.0420   54.7700   12.8260 C.ar  169  PHE169     -0.0042
    102  CE1        8.4920   57.4020   13.5140 C.ar  169  PHE169     -0.0003
    103  CE2        8.6440   55.6740   11.8460 C.ar  169  PHE169     -0.0003
    104  CZ         8.3690   56.9930   12.1920 C.ar  169  PHE169     -0.0000
    105  N          6.5200   53.0560   14.4050 N.am  170  PRO170     -0.2718
    106  CA         5.8620   54.3400   14.6770 C.3   170  PRO170      0.1535
    107  C          5.0680   54.3440   15.9830 C.2   170  PRO170      0.2599
    108  O          4.3770   53.3730   16.2990 O.2   170  PRO170     -0.2715
    109  CB         4.9270   54.5160   13.4780 C.3   170  PRO170      0.0310
    110  CG         4.6030   53.1310   13.0510 C.3   170  PRO170      0.0237
    111  CD         5.7810   52.2650   13.4010 C.3   170  PRO170      0.0939
    112  N          5.1670   55.4420   16.7260 N.am  171  GLY171     -0.1941
    113  CA         4.5090   55.5560   18.0210 C.3   171  GLY171      0.2014
    114  C          3.0120   55.7950   17.9580 C.2   171  GLY171      0.2639
    115  O          2.2730   55.3290   18.8250 O.2   171  GLY171     -0.2714
    116  N          2.5730   56.5220   16.9310 N.am  172  GLY172     -0.1940
    117  CA         1.1730   56.9240   16.7790 C.3   172  GLY172      0.1998
    118  C          0.1240   55.8420   16.9920 C.2   172  GLY172      0.2480
    119  O         -0.6870   55.9410   17.9180 O.2   172  GLY172     -0.2729
    120  N          0.1230   54.8020   16.1340 N.am  173  PRO173     -0.2726
    121  CA        -0.8490   53.7110   16.2680 C.3   173  PRO173      0.1402
    122  C         -0.8070   53.0190   17.6330 C.2   173  PRO173      0.2269
    123  O         -1.8510   52.6220   18.1560 O.2   173  PRO173     -0.2865
    124  CB        -0.4300   52.7330   15.1640 C.3   173  PRO173      0.0296
    125  CG         0.2790   53.5740   14.1670 C.3   173  PRO173      0.0237
    126  CD         1.0140   54.5950   14.9760 C.3   173  PRO173      0.0939
    127  N         -2.2960   55.3160   20.2320 N.3   176  GLU176     -0.1245
    128  CA        -3.7390   55.3250   19.9670 C.3   176  GLU176      0.1567
    129  C         -4.4330   54.1290   20.6170 C.2   176  GLU176      0.2260
    130  O         -5.5020   54.2750   21.2150 O.2   176  GLU176     -0.2867
    131  CB        -4.0350   55.3600   18.4640 C.3   176  GLU176      0.0388
    132  CG        -5.5010   55.6590   18.1500 C.3   176  GLU176      0.1160
    133  CD        -5.8690   55.4760   16.6890 C.2   176  GLU176      0.3649
    134  OE1       -4.9700   55.2420   15.8530 O.co2 176  GLU176     -0.2457
    135  OE2       -7.0780   55.5660   16.3790 O.co2 176  GLU176     -0.2457
    136  N         -3.4340   62.3360   24.2080 N.3   225  GLN225     -0.1245
    137  CA        -4.2440   62.5160   23.0020 C.3   225  GLN225      0.1566
    138  C         -5.3440   63.5570   23.1600 C.2   225  GLN225      0.2260
    139  O         -5.5180   64.4100   22.2930 O.2   225  GLN225     -0.2867
    140  CB        -4.8850   61.1980   22.5830 C.3   225  GLN225      0.0367
    141  CG        -3.9620   60.2530   21.8580 C.3   225  GLN225      0.0905
    142  CD        -4.7290   59.2070   21.0750 C.2   225  GLN225      0.2608
    143  OE1       -5.9240   58.9860   21.3030 O.2   225  GLN225     -0.2717
    144  NE2       -4.0490   58.5610   20.1420 N.am  225  GLN225     -0.0878
    145  N          0.3810   61.9990    7.9960 N.3   253  GLY253     -0.1210
    146  CA         0.4520   60.6560    8.5810 C.3   253  GLY253      0.1956
    147  C         -0.3920   60.4410    9.8280 C.2   253  GLY253      0.2611
    148  O         -0.8420   59.3240   10.0970 O.2   253  GLY253     -0.2717
    149  N         -0.6170   61.5110   10.5860 N.am  254  VAL254     -0.1979
    150  CA        -1.3950   61.4390   11.8240 C.3   254  VAL254      0.1595
    151  C         -2.9060   61.3450   11.5450 C.2   254  VAL254      0.2287
    152  O         -3.6930   61.0580   12.4500 O.2   254  VAL254     -0.2864
    153  CB        -1.0350   62.6190   12.7830 C.3   254  VAL254      0.0276
    154  CG1       -1.8650   62.5860   14.0650 C.3   254  VAL254      0.0022
    155  CG2        0.4530   62.5880   13.1200 C.3   254  VAL254      0.0022
    156  N         -4.4480   59.0620   10.2680 N.3   256  ALA256     -0.1231
    157  CA        -4.8850   57.6890   10.5470 C.3   256  ALA256      0.1694
    158  C         -5.6060   57.5580   11.8880 C.2   256  ALA256      0.2592
    159  O         -6.3630   56.6060   12.1020 O.2   256  ALA256     -0.2718
    160  CB        -3.6980   56.7320   10.4940 C.3   256  ALA256      0.0304
    161  N         -5.3720   58.5170   12.7820 N.am  257  ASN257     -0.1974
    162  CA        -5.9090   58.4640   14.1390 C.3   257  ASN257      0.1688
    163  C         -7.4280   58.6240   14.1990 C.2   257  ASN257      0.2292
    164  O         -7.9700   59.6680   13.8340 O.2   257  ASN257     -0.2864
    165  CB        -5.2230   59.5090   15.0220 C.3   257  ASN257      0.1181
    166  CG        -5.4560   59.2650   16.4960 C.2   257  ASN257      0.2629
    167  OD1       -6.5680   59.4270   16.9970 O.2   257  ASN257     -0.2716
    168  ND2       -4.4020   58.8770   17.2030 N.am  257  ASN257     -0.0877
    169  N         -5.7410   56.6220    3.1070 N.3   280  TYR280     -0.1241
    170  CA        -4.5250   56.8330    3.8970 C.3   280  TYR280      0.1605
    171  C         -3.2240   56.8970    3.0920 C.2   280  TYR280      0.2264
    172  O         -2.3070   57.6270    3.4710 O.2   280  TYR280     -0.2867
    173  CB        -4.3990   55.8370    5.0540 C.3   280  TYR280      0.0534
    174  CG        -3.2840   56.2090    6.0060 C.ar  280  TYR280     -0.0201
    175  CD1       -3.3280   57.4060    6.7240 C.ar  280  TYR280     -0.0009
    176  CD2       -2.1740   55.3810    6.1720 C.ar  280  TYR280     -0.0009
    177  CE1       -2.3010   57.7680    7.5840 C.ar  280  TYR280      0.0417
    178  CE2       -1.1430   55.7280    7.0390 C.ar  280  TYR280      0.0417
    179  CZ        -1.2150   56.9230    7.7420 C.ar  280  TYR280      0.1957
    180  OH        -0.2030   57.2720    8.5980 O.3   280  TYR280     -0.2866
    181  N         -0.5440   60.0470    4.2520 N.3   284  ARG284     -0.1231
    182  CA         0.8720   59.9530    4.5870 C.3   284  ARG284      0.1694
    183  C          1.7180   60.4130    3.4040 C.2   284  ARG284      0.2592
    184  O          1.2090   60.5410    2.2890 O.2   284  ARG284     -0.2718
    185  CB         1.2340   58.5160    4.9790 C.3   284  ARG284      0.0321
    186  CG         1.0260   57.4860    3.8760 C.3   284  ARG284      0.0489
    187  CD         1.5930   56.1410    4.2820 C.3   284  ARG284      0.2205
    188  NE         1.4630   55.1480    3.2190 N.pl3 284  ARG284     -0.0865
    189  CZ         2.2200   54.0590    3.1100 C.cat 284  ARG284      0.5346
    190  NH1        3.1790   53.8150    3.9940 N.pl3 284  ARG284      0.1354
    191  NH2        2.0210   53.2140    2.1080 N.pl3 284  ARG284      0.1354
    192  N          3.0020   60.6580    3.6500 N.am  285  ASP285     -0.1974
    193  CA         3.9280   61.0630    2.5950 C.3   285  ASP285      0.1709
    194  C          3.8450   60.1210    1.4040 C.2   285  ASP285      0.2293
    195  O          4.0030   58.9090    1.5500 O.2   285  ASP285     -0.2864
    196  CB         5.3610   61.1150    3.1200 C.3   285  ASP285      0.1436
    197  CG         5.6280   62.3420    3.9580 C.2   285  ASP285      0.3671
    198  OD1        4.6830   63.1200    4.2190 O.co2 285  ASP285     -0.2456
    199  OD2        6.7950   62.5260    4.3580 O.co2 285  ASP285     -0.2456
@<TRIPOS>BOND
     1    30    31    1
     2    31    32    1
     3    31    34    1
     4     1     2    1
     5    33    32    2
     6    26    25    2
     7     7     5    1
     8    34    35    1
     9    25    24    1
    10    36    35   ar
    11    36    38   ar
    12   194   195    2
    13   194   193    1
    14    29    27    1
    15     2     5    1
    16     2     3    1
    17    35    37   ar
    18   191   189    1
    19     5     6    1
    20   184   183    2
    21    38    39   ar
    22   193   196    1
    23   193   192    1
    24    24    27    1
    25    24    23    1
    26    27    28    1
    27   171   172    2
    28   171   170    1
    29   169   170    1
    30   189   188    2
    31   189   190    1
    32   196   197    1
    33     3     8   am
    34     3     4    2
    35    37    39   ar
    36   188   187    1
    37   183   192   am
    38   183   182    1
    39     8     9    1
    40    11    10    2
    41    23    15   am
    42    16    15    2
    43   186   187    1
    44   186   185    1
    45   170   173    1
    46   197   198   ar
    47   197   199   ar
    48    15    14    1
    49   181   182    1
    50    10     9    1
    51    10    13   am
    52   182   185    1
    53     9    12    1
    54   173   174    1
    55    14    13    1
    56    14    17    1
    57    51    50    1
    58   174   176   ar
    59   174   175   ar
    60   176   178   ar
    61    50    49   ar
    62    50    48   ar
    63    49    47   ar
    64    48    46   ar
    65    47    45   ar
    66    46    45   ar
    67    17    18    1
    68   175   177   ar
    69    45    44    1
    70   178   179   ar
    71    44    41    1
    72    72    71    2
    73   177   179   ar
    74    20    18   ar
    75    20    22   ar
    76   179   180    1
    77    18    19   ar
    78   145   146    1
    79    41    40    1
    80    41    42    1
    81    71    73   am
    82    71    70    1
    83   146   147    1
    84    70    67    1
    85    22    21   ar
    86    19    21   ar
    87    56    57    1
    88    56    53    1
    89    42    43    2
    90   147   148    2
    91   147   149   am
    92   156   157    1
    93   160   157    1
    94    67    66    1
    95    67    68    1
    96    53    52    1
    97    53    54    1
    98   157   158    1
    99   149   150    1
   100    66    64   am
   101    68    69    2
   102    58    54   am
   103    58    59    1
   104    64    63    1
   105    64    65    2
   106   151   150    1
   107   151   152    2
   108    62    63    1
   109    62    60   am
   110    54    55    2
   111   150   153    1
   112   103   104   ar
   113   103   101   ar
   114   158   159    2
   115   158   161   am
   116   104   102   ar
   117    59    60    1
   118    60    61    2
   119   161   162    1
   120   153   155    1
   121   153   154    1
   122   101    99   ar
   123   110   111    1
   124   110   109    1
   125   111   105    1
   126   109   106    1
   127   102   100   ar
   128   164   163    2
   129   162   163    1
   130   162   165    1
   131    99   100   ar
   132    99    98    1
   133   125   126    1
   134   125   124    1
   135   105   106    1
   136   105    96   am
   137    97    96    2
   138   106   107    1
   139    96    95    1
   140   126   120    1
   141   165   166    1
   142   124   121    1
   143    93    91   ar
   144    98    95    1
   145    75    74    1
   146    75    76    1
   147   134   133   ar
   148    95    94    1
   149   107   108    2
   150   107   112   am
   151    76    77    2
   152   120   121    1
   153   120   118   am
   154    91    92   ar
   155    91    90    1
   156   121   122    1
   157   135   133   ar
   158   166   167    2
   159   166   168   am
   160   133   132    1
   161   112   113    1
   162   117   116    1
   163   117   118    1
   164   116   114   am
   165   118   119    2
   166    90    87    1
   167   122   123    2
   168   114   113    1
   169   114   115    2
   170   132   131    1
   171    85    83    1
   172   131   128    1
   173    87    86    1
   174    87    88    1
   175    86    80   am
   176    82    83    1
   177    82    84    1
   178    82    79    1
   179    78    79    1
   180   128   127    1
   181   128   129    1
   182    88    89    2
   183    80    79    1
   184    80    81    2
   185   144   142   am
   186   129   130    2
   187   142   143    2
   188   142   141    1
   189   141   140    1
   190   139   138    2
   191   140   137    1
   192   137   138    1
   193   137   136    1
