@<TRIPOS>MOLECULE
tmp/2ivpA00.pdb
 213 207 0 0 0
SMALL
GASTEIGER

@<TRIPOS>ATOM
      1  N        -20.2580    5.5890   -0.7810 N.3     9  THR9       -0.1203
      2  CA       -19.8990    4.5380   -1.7450 C.3     9  THR9        0.1994
      3  C        -19.2710    5.1000   -3.0230 C.2     9  THR9        0.2618
      4  O        -18.3690    4.4790   -3.5960 O.2     9  THR9       -0.2717
      5  CB       -21.1050    3.6420   -2.1200 C.3     9  THR9        0.1784
      6  OG1      -22.1790    4.4510   -2.6100 O.3     9  THR9       -0.2211
      7  CG2      -21.5860    2.8510   -0.9250 C.3     9  THR9        0.0376
      8  N        -19.7520    6.2640   -3.4600 N.am   10  ALA10      -0.1965
      9  CA       -19.2410    6.9290   -4.6630 C.3    10  ALA10       0.1728
     10  C        -18.8660    8.3930   -4.3960 C.2    10  ALA10       0.2616
     11  O        -18.1800    8.6850   -3.4150 O.2    10  ALA10      -0.2715
     12  CB       -20.2410    6.8060   -5.8220 C.3    10  ALA10       0.0334
     13  N        -19.3210    9.3080   -5.2500 N.am   11  HIS11      -0.1959
     14  CA       -18.8770   10.7070   -5.2000 C.3    11  HIS11       0.1787
     15  C        -19.5280   11.5420   -4.1150 C.2    11  HIS11       0.2620
     16  O        -19.0510   12.6200   -3.7800 O.2    11  HIS11      -0.2715
     17  CB       -19.0650   11.3900   -6.5560 C.3    11  HIS11       0.0785
     18  CG       -18.0230   11.0160   -7.5610 C.ar   11  HIS11       0.0821
     19  ND1      -18.1900   11.2110   -8.9140 N.ar   11  HIS11      -0.2267
     20  CD2      -16.8060   10.4430   -7.4110 C.ar   11  HIS11       0.1154
     21  CE1      -17.1140   10.7880   -9.5530 C.ar   11  HIS11       0.1986
     22  NE2      -16.2580   10.3180   -8.6640 N.ar   11  HIS11      -0.2212
     23  N        -20.6210   11.0430   -3.5660 N.am   12  THR12      -0.1951
     24  CA       -21.3580   11.7920   -2.5680 C.3    12  THR12       0.1897
     25  C        -20.9470   11.3340   -1.1770 C.2    12  THR12       0.2313
     26  O        -20.8810   10.1330   -0.9010 O.2    12  THR12      -0.2863
     27  CB       -22.8890   11.6390   -2.7750 C.3    12  THR12       0.1794
     28  OG1      -23.2070   11.8390   -4.1600 O.3    12  THR12      -0.2208
     29  CG2      -23.6610   12.6490   -1.9430 C.3    12  THR12       0.0378
     30  N        -25.4340   -0.8590    0.7260 N.3   107  HIS107     -0.1241
     31  CA       -25.8920    0.3570    0.0510 C.3   107  HIS107      0.1621
     32  C        -27.2000    0.2110   -0.7370 C.2   107  HIS107      0.2264
     33  O        -28.0760    1.0550   -0.6210 O.2   107  HIS107     -0.2867
     34  CB       -24.7730    0.8890   -0.8430 C.3   107  HIS107      0.0745
     35  CG       -25.1380    2.1230   -1.5960 C.ar  107  HIS107      0.0817
     36  ND1      -25.0120    3.3870   -1.0600 N.ar  107  HIS107     -0.2268
     37  CD2      -25.6290    2.2890   -2.8460 C.ar  107  HIS107      0.1154
     38  CE1      -25.4040    4.2810   -1.9510 C.ar  107  HIS107      0.1986
     39  NE2      -25.7860    3.6400   -3.0420 N.ar  107  HIS107     -0.2212
     40  N        -31.3170    1.6280   -0.0090 N.3   111  HIS111     -0.1241
     41  CA       -32.1180    2.4140   -0.9420 C.3   111  HIS111      0.1621
     42  C        -33.5730    1.9570   -0.9210 C.2   111  HIS111      0.2264
     43  O        -34.4860    2.7690   -1.0410 O.2   111  HIS111     -0.2867
     44  CB       -31.5560    2.3410   -2.3640 C.3   111  HIS111      0.0745
     45  CG       -30.5200    3.3790   -2.6640 C.ar  111  HIS111      0.0817
     46  ND1      -30.8400    4.6850   -2.9710 N.ar  111  HIS111     -0.2268
     47  CD2      -29.1710    3.2990   -2.7390 C.ar  111  HIS111      0.1154
     48  CE1      -29.7350    5.3650   -3.2140 C.ar  111  HIS111      0.1986
     49  NE2      -28.7070    4.5480   -3.0840 N.ar  111  HIS111     -0.2212
     50  N        -34.1700    0.0570   -8.3160 N.3   127  TYR127     -0.1241
     51  CA       -33.0770    0.9220   -7.9120 C.3   127  TYR127      0.1605
     52  C        -32.2760    1.3110   -9.1500 C.2   127  TYR127      0.2264
     53  O        -31.6590    0.4680   -9.7990 O.2   127  TYR127     -0.2867
     54  CB       -32.2290    0.2390   -6.8250 C.3   127  TYR127      0.0534
     55  CG       -30.8540    0.8400   -6.5580 C.ar  127  TYR127     -0.0201
     56  CD1      -30.6460    2.2280   -6.5520 C.ar  127  TYR127     -0.0009
     57  CD2      -29.7680    0.0120   -6.2710 C.ar  127  TYR127     -0.0009
     58  CE1      -29.3840    2.7660   -6.3000 C.ar  127  TYR127      0.0417
     59  CE2      -28.5050    0.5370   -6.0160 C.ar  127  TYR127      0.0417
     60  CZ       -28.3210    1.9130   -6.0360 C.ar  127  TYR127      0.1957
     61  OH       -27.0670    2.4250   -5.7900 O.3   127  TYR127     -0.2866
     62  N        -29.5340    4.2810  -10.5820 N.3   129  SER129     -0.1202
     63  CA       -28.6050    5.3810  -10.3450 C.3   129  SER129      0.2020
     64  C        -27.5110    5.4640  -11.4160 C.2   129  SER129      0.2619
     65  O        -27.6230    4.8600  -12.4880 O.2   129  SER129     -0.2717
     66  CB       -27.9760    5.2240   -8.9680 C.3   129  SER129      0.2103
     67  OG       -27.3950    3.9370   -8.8610 O.3   129  SER129     -0.2182
     68  N        -26.4580    6.2210  -11.1120 N.am  130  GLY130     -0.1942
     69  CA       -25.2870    6.3360  -11.9740 C.3   130  GLY130      0.2014
     70  C        -24.5570    5.0210  -12.1450 C.2   130  GLY130      0.2639
     71  O        -24.3970    4.5480  -13.2600 O.2   130  GLY130     -0.2714
     72  N        -24.1270    4.4270  -11.0360 N.am  131  GLY131     -0.1939
     73  CA       -23.3520    3.1920  -11.0680 C.3   131  GLY131      0.2014
     74  C        -24.1710    1.9100  -11.0380 C.2   131  GLY131      0.2638
     75  O        -23.7520    0.8920  -11.5900 O.2   131  GLY131     -0.2714
     76  N        -25.3370    1.9490  -10.3990 N.am  132  ASN132     -0.1972
     77  CA       -26.1430    0.7470  -10.2450 C.3   132  ASN132      0.1688
     78  C        -27.4870    0.8240  -10.9370 C.2   132  ASN132      0.2292
     79  O        -28.0180    1.9090  -11.1900 O.2   132  ASN132     -0.2864
     80  CB       -26.3580    0.4120   -8.7660 C.3   132  ASN132      0.1181
     81  CG       -25.0630    0.3620   -7.9790 C.2   132  ASN132      0.2629
     82  OD1      -24.8830    1.1140   -7.0180 O.2   132  ASN132     -0.2716
     83  ND2      -24.1530   -0.5180   -8.3830 N.am  132  ASN132     -0.0877
     84  N        -28.0080    5.5990  -15.1470 N.3   155  GLY155     -0.1225
     85  CA       -27.5460    6.9610  -14.8850 C.3   155  GLY155      0.1811
     86  C        -26.2280    7.2570  -15.5720 C.2   155  GLY155      0.2280
     87  O        -26.0850    8.2930  -16.2200 O.2   155  GLY155     -0.2866
     88  N        -26.8160    7.5280  -19.3870 N.3   158  ILE158     -0.1231
     89  CA       -27.3850    8.8390  -19.7010 C.3   158  ILE158      0.1692
     90  C        -26.3160    9.9410  -19.6080 C.2   158  ILE158      0.2592
     91  O        -26.2890   10.8540  -20.4370 O.2   158  ILE158     -0.2718
     92  CB       -28.6100    9.1660  -18.7950 C.3   158  ILE158      0.0266
     93  CG1      -29.7700    8.2050  -19.0950 C.3   158  ILE158      0.0019
     94  CG2      -29.0800   10.5950  -19.0080 C.3   158  ILE158      0.0020
     95  CD1      -30.8730    8.1680  -18.0260 C.3   158  ILE158      0.0001
     96  N        -25.4300    9.8260  -18.6160 N.am  159  ASP159     -0.1974
     97  CA       -24.3170   10.7630  -18.4170 C.3   159  ASP159      0.1709
     98  C        -23.2950   10.7340  -19.5510 C.2   159  ASP159      0.2293
     99  O        -22.7960   11.7820  -19.9600 O.2   159  ASP159     -0.2864
    100  CB       -23.5940   10.4830  -17.0960 C.3   159  ASP159      0.1436
    101  CG       -24.4460   10.8010  -15.8750 C.2   159  ASP159      0.3671
    102  OD1      -25.4350   11.5660  -15.9930 O.co2 159  ASP159     -0.2456
    103  OD2      -24.1260   10.2760  -14.7830 O.co2 159  ASP159     -0.2456
    104  N        -22.0780   17.3590  -16.5860 N.3   169  PHE169     -0.1228
    105  CA       -22.6190   16.6290  -15.4410 C.3   169  PHE169      0.1721
    106  C        -23.4040   17.5650  -14.5060 C.2   169  PHE169      0.2437
    107  O        -22.9460   18.6710  -14.2300 O.2   169  PHE169     -0.2733
    108  CB       -21.4760   15.9510  -14.6830 C.3   169  PHE169      0.0547
    109  CG       -21.9260   14.8550  -13.7650 C.ar  169  PHE169     -0.0202
    110  CD1      -22.0630   13.5490  -14.2350 C.ar  169  PHE169     -0.0042
    111  CD2      -22.2250   15.1250  -12.4300 C.ar  169  PHE169     -0.0042
    112  CE1      -22.4890   12.5220  -13.3810 C.ar  169  PHE169     -0.0003
    113  CE2      -22.6570   14.1080  -11.5700 C.ar  169  PHE169     -0.0003
    114  CZ       -22.7870   12.8070  -12.0450 C.ar  169  PHE169     -0.0000
    115  N        -24.5790   17.1260  -14.0020 N.am  170  PRO170     -0.2718
    116  CA       -25.2380   15.8250  -14.2070 C.3   170  PRO170      0.1535
    117  C        -26.0930   15.7700  -15.4770 C.2   170  PRO170      0.2599
    118  O        -26.9630   16.6280  -15.6940 O.2   170  PRO170     -0.2715
    119  CB       -26.1070   15.6590  -12.9480 C.3   170  PRO170      0.0310
    120  CG       -26.0140   16.9870  -12.1860 C.3   170  PRO170      0.0237
    121  CD       -25.3700   17.9830  -13.1030 C.3   170  PRO170      0.0939
    122  N        -25.8330   14.7600  -16.3030 N.am  171  GLY171     -0.1941
    123  CA       -26.4930   14.6240  -17.5930 C.3   171  GLY171      0.2014
    124  C        -27.9660   14.2620  -17.5630 C.2   171  GLY171      0.2639
    125  O        -28.7020   14.5920  -18.4950 O.2   171  GLY171     -0.2714
    126  N        -28.3880   13.5900  -16.4910 N.am  172  GLY172     -0.1940
    127  CA       -29.7530   13.0880  -16.3300 C.3   172  GLY172      0.1998
    128  C        -30.9090   14.0570  -16.5410 C.2   172  GLY172      0.2480
    129  O        -31.7600   13.8160  -17.4010 O.2   172  GLY172     -0.2729
    130  N        -30.9770   15.1380  -15.7360 N.am  173  PRO173     -0.2726
    131  CA       -32.0060   16.1790  -15.9130 C.3   173  PRO173      0.1402
    132  C        -31.9310   16.8740  -17.2710 C.2   173  PRO173      0.2269
    133  O        -32.9670   17.2080  -17.8510 O.2   173  PRO173     -0.2865
    134  CB       -31.6940   17.1830  -14.7980 C.3   173  PRO173      0.0296
    135  CG       -30.9260   16.4070  -13.7890 C.3   173  PRO173      0.0237
    136  CD       -30.1150   15.4210  -14.5750 C.3   173  PRO173      0.0939
    137  N        -33.4110   14.6190  -19.8610 N.3   176  GLU176     -0.1245
    138  CA       -34.8590   14.5960  -19.6440 C.3   176  GLU176      0.1567
    139  C        -35.5270   15.8090  -20.2830 C.2   176  GLU176      0.2260
    140  O        -36.5460   15.6770  -20.9520 O.2   176  GLU176     -0.2867
    141  CB       -35.1940   14.5180  -18.1500 C.3   176  GLU176      0.0388
    142  CG       -36.6960   14.3970  -17.8400 C.3   176  GLU176      0.1160
    143  CD       -37.0180   14.4330  -16.3530 C.2   176  GLU176      0.3649
    144  OE1      -36.0880   14.5770  -15.5280 O.co2 176  GLU176     -0.2457
    145  OE2      -38.2160   14.3130  -16.0040 O.co2 176  GLU176     -0.2457
    146  N        -34.4120    7.5900  -23.9440 N.3   225  GLN225     -0.1245
    147  CA       -35.1790    7.3930  -22.7180 C.3   225  GLN225      0.1566
    148  C        -36.2680    6.3440  -22.8510 C.2   225  GLN225      0.2260
    149  O        -36.3930    5.4670  -21.9900 O.2   225  GLN225     -0.2867
    150  CB       -35.8020    8.7030  -22.2600 C.3   225  GLN225      0.0367
    151  CG       -34.8690    9.5860  -21.4460 C.3   225  GLN225      0.0905
    152  CD       -35.6090   10.6760  -20.6840 C.2   225  GLN225      0.2608
    153  OE1      -36.8060   10.8930  -20.8800 O.2   225  GLN225     -0.2717
    154  NE2      -34.8930   11.3710  -19.8150 N.am  225  GLN225     -0.0878
    155  N        -33.0340    5.6000   -5.9470 N.3   252  GLY252     -0.1210
    156  CA       -31.8070    5.9550   -6.6560 C.3   252  GLY252      0.1956
    157  C        -31.9190    7.3050   -7.3410 C.2   252  GLY252      0.2612
    158  O        -33.0270    7.7950   -7.5900 O.2   252  GLY252     -0.2717
    159  N        -30.7680    7.8970   -7.6690 N.am  253  GLY253     -0.1942
    160  CA       -30.7020    9.2560   -8.2150 C.3   253  GLY253      0.2014
    161  C        -31.5570    9.5000   -9.4450 C.2   253  GLY253      0.2638
    162  O        -32.0430   10.6130   -9.6540 O.2   253  GLY253     -0.2714
    163  N        -31.7430    8.4540  -10.2530 N.am  254  VAL254     -0.1977
    164  CA       -32.4950    8.5210  -11.5030 C.3   254  VAL254      0.1596
    165  C        -33.9960    8.5860  -11.2290 C.2   254  VAL254      0.2287
    166  O        -34.7850    8.8950  -12.1250 O.2   254  VAL254     -0.2864
    167  CB       -32.1590    7.3090  -12.4160 C.3   254  VAL254      0.0276
    168  CG1      -33.0300    7.2890  -13.6750 C.3   254  VAL254      0.0022
    169  CG2      -30.6750    7.3070  -12.7790 C.3   254  VAL254      0.0022
    170  N        -35.6120   10.7820   -9.9100 N.3   256  ALA256     -0.1231
    171  CA       -36.1280   12.1340  -10.1780 C.3   256  ALA256      0.1694
    172  C        -36.7940   12.2360  -11.5450 C.2   256  ALA256      0.2592
    173  O        -37.5540   13.1690  -11.7930 O.2   256  ALA256     -0.2718
    174  CB       -35.0180   13.1820  -10.0640 C.3   256  ALA256      0.0304
    175  N        -36.5060   11.2800  -12.4270 N.am  257  ASN257     -0.1974
    176  CA       -36.9820   11.3290  -13.8150 C.3   257  ASN257      0.1688
    177  C        -38.4950   11.1690  -13.9140 C.2   257  ASN257      0.2292
    178  O        -39.0350   10.1160  -13.5680 O.2   257  ASN257     -0.2864
    179  CB       -36.2630   10.2740  -14.6590 C.3   257  ASN257      0.1181
    180  CG       -36.4780   10.4630  -16.1480 C.2   257  ASN257      0.2629
    181  OD1      -37.5510   10.1580  -16.6780 O.2   257  ASN257     -0.2716
    182  ND2      -35.4520   10.9450  -16.8340 N.am  257  ASN257     -0.0877
    183  N        -36.8590   13.2260   -2.8590 N.3   280  TYR280     -0.1241
    184  CA       -35.6320   13.0630   -3.6350 C.3   280  TYR280      0.1605
    185  C        -34.3270   13.0010   -2.8260 C.2   280  TYR280      0.2264
    186  O        -33.4080   12.2680   -3.2010 O.2   280  TYR280     -0.2867
    187  CB       -35.5200   14.0670   -4.7900 C.3   280  TYR280      0.0534
    188  CG       -34.3810   13.7030   -5.7220 C.ar  280  TYR280     -0.0201
    189  CD1      -34.3610   12.4610   -6.3740 C.ar  280  TYR280     -0.0009
    190  CD2      -33.3050   14.5700   -5.9170 C.ar  280  TYR280     -0.0009
    191  CE1      -33.3060   12.0950   -7.2060 C.ar  280  TYR280      0.0417
    192  CE2      -32.2420   14.2230   -6.7650 C.ar  280  TYR280      0.0417
    193  CZ       -32.2510   12.9790   -7.4020 C.ar  280  TYR280      0.1957
    194  OH       -31.2120   12.6230   -8.2310 O.3   280  TYR280     -0.2866
    195  N        -31.5290    9.6920   -4.0990 N.3   284  ARG284     -0.1231
    196  CA       -30.1000    9.7360   -4.3720 C.3   284  ARG284      0.1694
    197  C        -29.3280    9.2450   -3.1600 C.2   284  ARG284      0.2592
    198  O        -29.8950    9.1250   -2.0830 O.2   284  ARG284     -0.2718
    199  CB       -29.6770   11.1660   -4.7210 C.3   284  ARG284      0.0321
    200  CG       -29.9300   12.1890   -3.6180 C.3   284  ARG284      0.0489
    201  CD       -29.9960   13.5540   -4.2240 C.3   284  ARG284      0.2205
    202  NE       -29.7490   14.6000   -3.2490 N.pl3 284  ARG284     -0.0865
    203  CZ       -28.5980   15.2520   -3.1250 C.cat 284  ARG284      0.5346
    204  NH1      -28.4710   16.1980   -2.2040 N.pl3 284  ARG284      0.1354
    205  NH2      -27.5730   14.9590   -3.9100 N.pl3 284  ARG284      0.1354
    206  N        -28.0400    8.9660   -3.3410 N.am  285  ASP285     -0.1974
    207  CA       -27.1600    8.5910   -2.2310 C.3   285  ASP285      0.1709
    208  C        -27.2770    9.5720   -1.0830 C.2   285  ASP285      0.2293
    209  O        -27.0980   10.7690   -1.2790 O.2   285  ASP285     -0.2864
    210  CB       -25.7060    8.5400   -2.6910 C.3   285  ASP285      0.1436
    211  CG       -25.4310    7.3690   -3.5860 C.2   285  ASP285      0.3671
    212  OD1      -26.3700    6.5850   -3.8480 O.co2 285  ASP285     -0.2456
    213  OD2      -24.2770    7.2300   -4.0310 O.co2 285  ASP285     -0.2456
@<TRIPOS>BOND
     1   146   147    1
     2   148   147    1
     3   148   149    2
     4   147   150    1
     5   150   151    1
     6   151   152    1
     7   140   139    2
     8   153   152    2
     9   152   154   am
    10    91    90    2
    11   139   138    1
    12    99    98    2
    13   137   138    1
    14    89    90    1
    15    89    88    1
    16    89    92    1
    17   138   141    1
    18    90    96   am
    19    98    97    1
    20    93    92    1
    21    93    95    1
    22    94    92    1
    23    96    97    1
    24   125   124    2
    25    97   100    1
    26   141   142    1
    27   133   132    2
    28   142   143    1
    29   123   124    1
    30   123   122    1
    31   124   126   am
    32   129   128    2
    33   132   131    1
    34   100   101    1
    35   182   180   am
    36   181   180    2
    37   104   105    1
    38   128   127    1
    39   128   130   am
    40   126   127    1
    41   143   145   ar
    42   143   144   ar
    43   122   117   am
    44    87    86    2
    45   180   179    1
    46   102   101   ar
    47   131   130    1
    48   131   134    1
    49   101   103   ar
    50   130   136    1
    51   118   117    2
    52    86    85    1
    53   117   116    1
    54   105   108    1
    55   105   106    1
    56    84    85    1
    57   134   135    1
    58   108   109    1
    59   179   176    1
    60   136   135    1
    61   106   107    2
    62   106   115   am
    63   110   109   ar
    64   110   112   ar
    65   116   115    1
    66   116   119    1
    67   115   121    1
    68   177   176    1
    69   177   178    2
    70   176   175    1
    71   109   111   ar
    72   168   167    1
    73   112   114   ar
    74    71    70    2
    75   121   120    1
    76   119   120    1
    77   169   167    1
    78    65    64    2
    79   111   113   ar
    80   175   172   am
    81   167   164    1
    82    70    69    1
    83    70    72   am
    84   166   165    2
    85   114   113   ar
    86    69    68    1
    87   173   172    2
    88    75    74    2
    89   172   171    1
    90   164   165    1
    91   164   163    1
    92    64    68   am
    93    64    63    1
    94    79    78    2
    95    73    74    1
    96    73    72    1
    97    74    76   am
    98    78    77    1
    99    62    63    1
   100    76    77    1
   101    63    66    1
   102   163   161   am
   103    77    80    1
   104   171   174    1
   105   171   170    1
   106    53    52    2
   107   162   161    2
   108    21    19   ar
   109    21    22   ar
   110   161   160    1
   111    52    51    1
   112    66    67    1
   113    19    18   ar
   114    80    81    1
   115    22    20   ar
   116    83    81   am
   117    50    51    1
   118   194   193    1
   119   160   159    1
   120    81    82    2
   121    51    54    1
   122   159   157   am
   123   158   157    2
   124    18    20   ar
   125    18    17    1
   126   193   191   ar
   127   193   192   ar
   128   157   156    1
   129   191   189   ar
   130    54    55    1
   131   192   190   ar
   132   156   155    1
   133    55    56   ar
   134    55    57   ar
   135    17    14    1
   136    56    58   ar
   137   189   188   ar
   138    58    60   ar
   139    57    59   ar
   140    60    59   ar
   141    60    61    1
   142   190   188   ar
   143    12     9    1
   144   188   187    1
   145    13    14    1
   146    13    10   am
   147    14    15    1
   148   187   184    1
   149   199   196    1
   150   199   200    1
   151     9    10    1
   152     9     8    1
   153    10    11    2
   154   196   195    1
   155   196   197    1
   156   201   200    1
   157   201   202    1
   158    28    27    1
   159    15    16    2
   160    15    23   am
   161   213   211   ar
   162   205   203    1
   163   212   211   ar
   164   184   183    1
   165   184   185    1
   166     4     3    2
   167   211   210    1
   168    23    24    1
   169     8     3   am
   170   206   197   am
   171   206   207    1
   172   202   203    2
   173    48    49   ar
   174    48    46   ar
   175   186   185    2
   176   197   198    2
   177   203   204    1
   178    49    47   ar
   179    39    37   ar
   180    39    38   ar
   181     3     2    1
   182    46    45   ar
   183    37    35   ar
   184    27    24    1
   185    27    29    1
   186    47    45   ar
   187   210   207    1
   188    45    44    1
   189     6     5    1
   190    24    25    1
   191    44    41    1
   192   207   208    1
   193     5     2    1
   194     5     7    1
   195    38    36   ar
   196     2     1    1
   197    35    36   ar
   198    35    34    1
   199   209   208    2
   200    25    26    2
   201    43    42    2
   202    41    42    1
   203    41    40    1
   204    34    31    1
   205    32    33    2
   206    32    31    1
   207    31    30    1
