@<TRIPOS>MOLECULE
tmp/2ivsA00.pdb
 134 124 0 0 0
SMALL
GASTEIGER

@<TRIPOS>ATOM
      1  N          3.6350    4.9160   -8.9970 N.3    18  LEU18      -0.1231
      2  CA         4.1030    5.5920   -7.7920 C.3    18  LEU18       0.1693
      3  C          5.5400    6.1480   -7.9600 C.2    18  LEU18       0.2593
      4  O          5.9200    7.1230   -7.3180 O.2    18  LEU18      -0.2718
      5  CB         4.0480    4.6180   -6.6010 C.3    18  LEU18       0.0284
      6  CG         2.6740    4.1290   -6.1390 C.3    18  LEU18       0.0019
      7  CD1        2.7280    2.9520   -5.1130 C.3    18  LEU18       0.0001
      8  CD2        1.9020    5.3010   -5.5900 C.3    18  LEU18       0.0001
      9  N          6.3400    5.5140   -8.8070 N.am   19  GLY19      -0.1942
     10  CA         7.7100    5.9860   -9.0730 C.3    19  GLY19       0.2014
     11  C          8.5490    4.8580   -9.6400 C.2    19  GLY19       0.2639
     12  O          8.0230    3.7920   -9.9530 O.2    19  GLY19      -0.2714
     13  N          9.8550    5.1070   -9.7790 N.am   20  GLU20      -0.1963
     14  CA        10.8050    4.0860  -10.2030 C.3    20  GLU20       0.1733
     15  C         11.8210    3.9220   -9.0870 C.2    20  GLU20       0.2616
     16  O         12.2920    4.9190   -8.5220 O.2    20  GLU20      -0.2715
     17  CB        11.5060    4.4990  -11.5000 C.3    20  GLU20       0.0429
     18  CG        10.5540    4.4810  -12.7120 C.3    20  GLU20       0.1163
     19  CD        11.0780    5.2560  -13.9060 C.2    20  GLU20       0.3649
     20  OE1       12.2800    5.6370  -13.9400 O.co2  20  GLU20      -0.2457
     21  OE2       10.2740    5.4780  -14.8300 O.co2  20  GLU20      -0.2457
     22  N         12.1240    2.6740   -8.7410 N.am   21  GLY21      -0.1955
     23  CA        13.1080    2.3750   -7.7070 C.3    21  GLY21       0.1869
     24  C         14.4530    1.9480   -8.2910 C.2    21  GLY21       0.2309
     25  O         14.8750    2.4550   -9.3410 O.2    21  GLY21      -0.2863
     26  N          7.2080    1.0470   -9.7450 N.3    26  VAL26      -0.1245
     27  CA         6.3040    0.6330   -8.6850 C.3    26  VAL26       0.1561
     28  C          4.9640    1.2750   -9.0230 C.2    26  VAL26       0.2260
     29  O          4.8880    2.4960   -9.3270 O.2    26  VAL26      -0.2867
     30  CB         6.7860    1.1510   -7.3140 C.3    26  VAL26       0.0252
     31  CG1        5.8860    0.6440   -6.1760 C.3    26  VAL26       0.0019
     32  CG2        8.2560    0.7510   -7.0690 C.3    26  VAL26       0.0019
     33  N          1.0160   -2.5570   -3.4840 N.3    44  ALA44      -0.1245
     34  CA         1.9590   -1.9940   -4.4460 C.3    44  ALA44       0.1562
     35  C          2.5020   -3.1250   -5.3310 C.2    44  ALA44       0.2260
     36  O          2.6380   -4.2510   -4.9030 O.2    44  ALA44      -0.2867
     37  CB         3.1040   -1.2880   -3.7170 C.3    44  ALA44       0.0290
     38  N          5.6020   -4.2390   -8.1010 N.3    46  LYS46      -0.1245
     39  CA         6.9000   -3.9490   -8.6900 C.3    46  LYS46       0.1561
     40  C          6.9170   -4.6570  -10.0200 C.2    46  LYS46       0.2260
     41  O          6.4850   -5.8130  -10.1160 O.2    46  LYS46      -0.2867
     42  CB         8.0240   -4.5440   -7.8330 C.3    46  LYS46       0.0271
     43  CG         8.0120   -4.1950   -6.3610 C.3    46  LYS46       0.0035
     44  CD         8.3820   -2.7550   -6.1460 C.3    46  LYS46       0.0206
     45  CE         8.9300   -2.5210   -4.7470 C.3    46  LYS46       0.1093
     46  NZ        10.4270   -2.6570   -4.6950 N.3    46  LYS46      -0.1314
     47  N          8.8310   -4.5610    4.8030 N.3    76  ILE76      -0.1245
     48  CA         7.7010   -4.5780    3.8680 C.3    76  ILE76       0.1561
     49  C          7.2930   -6.0280    3.5360 C.2    76  ILE76       0.2260
     50  O          8.1390   -6.8940    3.3530 O.2    76  ILE76      -0.2867
     51  CB         7.9940   -3.7350    2.5880 C.3    76  ILE76       0.0252
     52  CG1        6.6720   -3.3050    1.9430 C.3    76  ILE76       0.0019
     53  CG2        8.9270   -4.4720    1.5910 C.3    76  ILE76       0.0019
     54  CD1        5.9480   -2.1610    2.7600 C.3    76  ILE76       0.0001
     55  N          3.2790   -6.5120   -3.2060 N.3    92  VAL92      -0.1231
     56  CA         3.7900   -6.1960   -1.8700 C.3    92  VAL92       0.1692
     57  C          2.8500   -5.2590   -1.1130 C.2    92  VAL92       0.2592
     58  O          1.9810   -4.6180   -1.7010 O.2    92  VAL92      -0.2718
     59  CB         5.2580   -5.5930   -1.8760 C.3    92  VAL92       0.0266
     60  CG1        6.2470   -6.4990   -2.6930 C.3    92  VAL92       0.0020
     61  CG2        5.3180   -4.1980   -2.3780 C.3    92  VAL92       0.0020
     62  N          3.0540   -5.1990    0.2040 N.am   93  GLU93      -0.1966
     63  CA         2.2700   -4.3550    1.1120 C.3    93  GLU93       0.1733
     64  C          2.3430   -2.9020    0.6520 C.2    93  GLU93       0.2616
     65  O          3.4370   -2.4090    0.3560 O.2    93  GLU93      -0.2715
     66  CB         2.9040   -4.5100    2.5060 C.3    93  GLU93       0.0429
     67  CG         2.3090   -3.6970    3.6070 C.3    93  GLU93       0.1163
     68  CD         3.0060   -3.9510    4.9640 C.2    93  GLU93       0.3649
     69  OE1        4.0890   -4.6030    5.0440 O.co2  93  GLU93      -0.2457
     70  OE2        2.4420   -3.4900    5.9640 O.co2  93  GLU93      -0.2457
     71  N          1.2010   -2.2230    0.6190 N.am   94  TYR94      -0.1960
     72  CA         1.1490   -0.8020    0.3100 C.3    94  TYR94       0.1771
     73  C          1.4630    0.0670    1.5270 C.2    94  TYR94       0.2619
     74  O          0.8690   -0.1010    2.5930 O.2    94  TYR94      -0.2715
     75  CB        -0.2280   -0.4130   -0.2650 C.3    94  TYR94       0.0574
     76  CG        -0.3850    1.0550   -0.5740 C.ar   94  TYR94      -0.0198
     77  CD1        0.3310    1.6430   -1.6160 C.ar   94  TYR94      -0.0009
     78  CD2       -1.2590    1.8510    0.1690 C.ar   94  TYR94      -0.0009
     79  CE1        0.1990    2.9830   -1.9030 C.ar   94  TYR94       0.0417
     80  CE2       -1.4160    3.2050   -0.1180 C.ar   94  TYR94       0.0417
     81  CZ        -0.6810    3.7640   -1.1380 C.ar   94  TYR94       0.1957
     82  OH        -0.8380    5.1030   -1.4480 O.3    94  TYR94      -0.2866
     83  N          2.3820    1.0080    1.3720 N.am   95  ALA95      -0.1977
     84  CA         2.6760    1.9330    2.4440 C.3    95  ALA95       0.1597
     85  C          2.0810    3.2960    2.0940 C.2    95  ALA95       0.2287
     86  O          2.5740    3.9740    1.2060 O.2    95  ALA95      -0.2864
     87  CB         4.2080    2.0620    2.6720 C.3    95  ALA95       0.0319
     88  N          4.3310    6.6210    1.5680 N.3    98  GLY98      -0.1210
     89  CA         5.4700    6.5920    0.6630 C.3    98  GLY98       0.1956
     90  C          6.7870    6.5240    1.4220 C.2    98  GLY98       0.2612
     91  O          6.8440    6.0440    2.5580 O.2    98  GLY98      -0.2717
     92  N          7.8560    6.9830    0.7910 N.am   99  SER99      -0.1952
     93  CA         9.1850    6.8210    1.3850 C.3    99  SER99       0.1924
     94  C          9.3750    7.7130    2.6020 C.2    99  SER99       0.2314
     95  O          8.7850    8.7930    2.6840 O.2    99  SER99      -0.2863
     96  CB        10.2570    7.1140    0.3470 C.3    99  SER99       0.2116
     97  OG        10.2750    8.5050    0.0910 O.3    99  SER99      -0.2180
     98  N         10.6920   11.1900    1.5420 N.3   102  GLY102     -0.1225
     99  CA         9.5620   12.0460    1.1210 C.3   102  GLY102      0.1811
    100  C          8.7020   12.5830    2.2600 C.2   102  GLY102      0.2280
    101  O          8.3200   13.7710    2.2810 O.2   102  GLY102     -0.2866
    102  N         15.2720    6.9710    1.3310 N.3   150  ARG150     -0.1245
    103  CA        14.4370    6.6760    0.1480 C.3   150  ARG150      0.1563
    104  C         13.9550    5.2020    0.0760 C.2   150  ARG150      0.2260
    105  O         13.0240    4.9010   -0.6530 O.2   150  ARG150     -0.2867
    106  CB        15.2000    7.0800   -1.1430 C.3   150  ARG150      0.0307
    107  CG        16.3880    6.1000   -1.4220 C.3   150  ARG150      0.0489
    108  CD        17.1660    6.3540   -2.7530 C.3   150  ARG150      0.2205
    109  NE        18.3610    5.5090   -2.6650 N.pl3 150  ARG150     -0.0865
    110  CZ        19.4880    5.8860   -2.0640 C.cat 150  ARG150      0.5346
    111  NH1       19.5990    7.1090   -1.5680 N.pl3 150  ARG150      0.1354
    112  NH2       20.5050    5.0430   -1.9520 N.pl3 150  ARG150      0.1354
    113  N          9.9030    2.7980    3.9180 N.3   153  LEU153     -0.1245
    114  CA         8.5450    3.2940    3.6310 C.3   153  LEU153      0.1561
    115  C          7.8170    3.6020    4.9290 C.2   153  LEU153      0.2260
    116  O          8.1750    3.0740    5.9780 O.2   153  LEU153     -0.2867
    117  CB         7.7570    2.2560    2.7950 C.3   153  LEU153      0.0270
    118  CG         8.3330    1.9340    1.4000 C.3   153  LEU153      0.0019
    119  CD1        7.6990    0.6550    0.8700 C.3   153  LEU153      0.0001
    120  CD2        8.1590    3.0510    0.3840 C.3   153  LEU153      0.0001
    121  N         12.4750   -1.4570    2.9560 N.3   163  SER163     -0.1202
    122  CA        12.0120   -1.7740    1.6150 C.3   163  SER163      0.2020
    123  C         13.1770   -1.8980    0.6180 C.2   163  SER163      0.2618
    124  O         14.3560   -1.6940    0.9930 O.2   163  SER163     -0.2717
    125  CB        11.1330   -0.5910    1.1570 C.3   163  SER163      0.2103
    126  OG        10.3900   -0.9750    0.0170 O.3   163  SER163     -0.2182
    127  N         12.8460   -2.1890   -0.6510 N.am  164  ASP164     -0.1973
    128  CA        13.8240   -2.1330   -1.7570 C.3   164  ASP164      0.1709
    129  C         14.9750   -3.1060   -1.5590 C.2   164  ASP164      0.2293
    130  O         16.1100   -2.7080   -1.2650 O.2   164  ASP164     -0.2864
    131  CB        14.3260   -0.6900   -2.0230 C.3   164  ASP164      0.1436
    132  CG        13.1710    0.2820   -2.4330 C.2   164  ASP164      0.3671
    133  OD1       12.3530    0.6820   -1.5690 O.co2 164  ASP164     -0.2456
    134  OD2       13.0980    0.6880   -3.6060 O.co2 164  ASP164     -0.2456
@<TRIPOS>BOND
     1    21    19   ar
     2    20    19   ar
     3    19    18    1
     4    18    17    1
     5    17    14    1
     6    14    13    1
     7    14    15    1
     8    41    40    2
     9    40    39    1
    10    12    11    2
    11    13    11   am
    12    26    27    1
    13    11    10    1
    14    25    24    2
    15    29    28    2
    16    15    22   am
    17    15    16    2
    18    10     9    1
    19    28    27    1
    20     1     2    1
    21     9     3   am
    22    22    23    1
    23    39    38    1
    24    39    42    1
    25    27    30    1
    26    24    23    1
    27     3     2    1
    28     3     4    2
    29    42    43    1
    30     2     5    1
    31    30    32    1
    32    30    31    1
    33     5     6    1
    34    43    44    1
    35    44    45    1
    36     6     8    1
    37     6     7    1
    38    35    36    2
    39    35    34    1
    40    45    46    1
    41    34    37    1
    42    34    33    1
    43   134   132   ar
    44    55    56    1
    45   108   109    1
    46   108   107    1
    47    60    59    1
    48   109   110    2
    49   132   131    1
    50   132   133   ar
    51    61    59    1
    52   110   112    1
    53   110   111    1
    54   131   128    1
    55    79    77   ar
    56    79    81   ar
    57    59    56    1
    58    56    57    1
    59   128   129    1
    60   128   127    1
    61    58    57    2
    62    77    76   ar
    63   129   130    2
    64    82    81    1
    65   107   106    1
    66   106   103    1
    67    81    80   ar
    68    57    62   am
    69   105   104    2
    70   127   123   am
    71    76    75    1
    72    76    78   ar
    73    75    72    1
    74    80    78   ar
    75   126   125    1
    76   104   103    1
    77    97    96    1
    78   103   102    1
    79    62    63    1
    80    72    71    1
    81    72    73    1
    82    96    93    1
    83    65    64    2
    84   120   118    1
    85   123   124    2
    86   123   122    1
    87    71    64   am
    88    64    63    1
    89    89    90    1
    90    89    88    1
    91    92    93    1
    92    92    90   am
    93   119   118    1
    94    63    66    1
    95    99    98    1
    96    99   100    1
    97   125   122    1
    98    86    85    2
    99    83    73   am
   100    83    84    1
   101    93    94    1
   102   118   117    1
   103    90    91    2
   104    73    74    2
   105    53    51    1
   106   122   121    1
   107    52    51    1
   108    52    54    1
   109    85    84    1
   110   100   101    2
   111    84    87    1
   112    66    67    1
   113    51    48    1
   114    94    95    2
   115   117   114    1
   116    50    49    2
   117    49    48    1
   118    67    68    1
   119   114   113    1
   120   114   115    1
   121    48    47    1
   122   115   116    2
   123    68    69   ar
   124    68    70   ar
