@<TRIPOS>MOLECULE
tmp/2ivtA00.pdb
 153 144 0 0 0
SMALL
GASTEIGER

@<TRIPOS>ATOM
      1  N         61.7160   13.1110    5.3190 N.3    28  LEU28      -0.1231
      2  CA        62.2460   13.1310    6.6540 C.3    28  LEU28       0.1693
      3  C         63.6100   12.4310    6.7360 C.2    28  LEU28       0.2593
      4  O         64.3080   12.5690    7.7530 O.2    28  LEU28      -0.2718
      5  CB        61.2450   12.5120    7.6230 C.3    28  LEU28       0.0284
      6  CG        60.0080   13.3380    7.9360 C.3    28  LEU28       0.0019
      7  CD1       59.0020   12.5140    8.7260 C.3    28  LEU28       0.0001
      8  CD2       60.4100   14.5940    8.6950 C.3    28  LEU28       0.0001
      9  N         63.9780   11.6790    5.6920 N.am   29  GLY29      -0.1942
     10  CA        65.2120   10.8950    5.6930 C.3    29  GLY29       0.2014
     11  C         65.1540    9.6220    4.8460 C.2    29  GLY29       0.2639
     12  O         64.0740    9.1710    4.4570 O.2    29  GLY29      -0.2714
     13  N         66.3270    9.0520    4.5560 N.am   30  GLU30      -0.1963
     14  CA        66.4500    7.7930    3.8350 C.3    30  GLU30       0.1733
     15  C         67.1830    6.7950    4.7030 C.2    30  GLU30       0.2616
     16  O         68.1560    7.1480    5.3380 O.2    30  GLU30      -0.2715
     17  CB        67.1940    7.9890    2.5200 C.3    30  GLU30       0.0429
     18  CG        66.4300    8.8560    1.5120 C.3    30  GLU30       0.1163
     19  CD        67.0090    8.7650    0.0850 C.2    30  GLU30       0.3649
     20  OE1       68.2350    8.4780   -0.0350 O.co2  30  GLU30      -0.2457
     21  OE2       66.2560    8.9790   -0.9140 O.co2  30  GLU30      -0.2457
     22  N         66.6800    5.5600    4.7680 N.am   31  GLY31      -0.1955
     23  CA        67.3840    4.4550    5.4350 C.3    31  GLY31       0.1869
     24  C         68.1450    3.6600    4.3860 C.2    31  GLY31       0.2309
     25  O         68.4070    4.1790    3.2920 O.2    31  GLY31      -0.2863
     26  N         66.9840    0.8930    2.7920 N.3    33  PHE33      -0.1227
     27  CA        66.0820    0.4790    1.6910 C.3    33  PHE33       0.1736
     28  C         64.8760    1.3910    1.4380 C.2    33  PHE33       0.2596
     29  O         64.2740    1.3760    0.3600 O.2    33  PHE33      -0.2718
     30  CB        65.5890   -0.9420    1.9350 C.3    33  PHE33       0.0547
     31  CG        64.6810   -1.0540    3.1210 C.ar   33  PHE33      -0.0202
     32  CD1       65.2180   -1.2560    4.4030 C.ar   33  PHE33      -0.0042
     33  CD2       63.2890   -0.9240    2.9630 C.ar   33  PHE33      -0.0042
     34  CE1       64.3800   -1.3430    5.5070 C.ar   33  PHE33      -0.0003
     35  CE2       62.4350   -1.0020    4.0610 C.ar   33  PHE33      -0.0003
     36  CZ        62.9750   -1.2190    5.3330 C.ar   33  PHE33      -0.0000
     37  N         64.4980    2.1640    2.4410 N.am   34  GLY34      -0.1957
     38  CA        63.3410    3.0290    2.2760 C.3    34  GLY34       0.1869
     39  C         63.6350    4.5120    2.3470 C.2    34  GLY34       0.2309
     40  O         64.7250    4.9540    2.7690 O.2    34  GLY34      -0.2863
     41  N         61.6110    7.9840    3.9200 N.3    36  VAL36      -0.1245
     42  CA        60.4500    8.3450    4.7340 C.3    36  VAL36       0.1561
     43  C         60.0080    9.7910    4.4750 C.2    36  VAL36       0.2260
     44  O         60.8580   10.6940    4.5060 O.2    36  VAL36      -0.2867
     45  CB        60.7190    8.0960    6.2150 C.3    36  VAL36       0.0252
     46  CG1       59.6060    8.6450    7.0730 C.3    36  VAL36       0.0019
     47  CG2       60.8520    6.6140    6.4660 C.3    36  VAL36       0.0019
     48  N         53.8950    9.3480    9.3830 N.3    54  ALA54      -0.1245
     49  CA        55.0820    9.2210    8.5480 C.3    54  ALA54       0.1562
     50  C         54.8080    8.1530    7.5070 C.2    54  ALA54       0.2260
     51  O         54.0320    7.2410    7.7700 O.2    54  ALA54      -0.2867
     52  CB        56.3090    8.9160    9.3720 C.3    54  ALA54       0.0290
     53  N         56.6390    5.4120    4.7100 N.3    56  LYS56      -0.1245
     54  CA        57.7830    4.7220    4.0890 C.3    56  LYS56       0.1561
     55  C         57.4900    4.2450    2.6800 C.2    56  LYS56       0.2260
     56  O         56.4560    3.6670    2.4270 O.2    56  LYS56      -0.2867
     57  CB        58.1800    3.4990    4.8920 C.3    56  LYS56       0.0271
     58  CG        59.2650    3.7510    5.8650 C.3    56  LYS56       0.0035
     59  CD        60.3470    2.6900    5.6910 C.3    56  LYS56       0.0206
     60  CE        60.8250    2.2510    7.0580 C.3    56  LYS56       0.1093
     61  NZ        62.1210    1.5880    6.8570 N.3    56  LYS56      -0.1314
     62  N         57.3900    1.3730   17.1440 N.3    86  ILE86      -0.1245
     63  CA        56.6590    2.2800   16.2350 C.3    86  ILE86       0.1561
     64  C         55.3620    1.6190   15.7700 C.2    86  ILE86       0.2260
     65  O         55.3350    0.4110   15.5050 O.2    86  ILE86      -0.2867
     66  CB        57.5760    2.7370   15.0330 C.3    86  ILE86       0.0252
     67  CG1       57.1310    4.0770   14.4380 C.3    86  ILE86       0.0019
     68  CG2       57.6780    1.6840   13.9850 C.3    86  ILE86       0.0019
     69  CD1       57.2720    5.2800   15.3950 C.3    86  ILE86       0.0001
     70  N         52.9330    4.9110    8.9720 N.3   102  VAL102     -0.1231
     71  CA        53.2380    4.6070   10.3710 C.3   102  VAL102      0.1692
     72  C         53.0750    5.8690   11.2520 C.2   102  VAL102      0.2592
     73  O         52.9400    6.9990   10.7370 O.2   102  VAL102     -0.2718
     74  CB        54.6870    3.9900   10.5510 C.3   102  VAL102      0.0266
     75  CG1       54.9170    2.8330    9.6160 C.3   102  VAL102      0.0020
     76  CG2       55.7540    5.0210   10.3180 C.3   102  VAL102      0.0020
     77  N         53.0830    5.6460   12.5710 N.am  103  GLU103     -0.1966
     78  CA        53.1740    6.6700   13.5850 C.3   103  GLU103      0.1733
     79  C         54.2980    7.6690   13.3240 C.2   103  GLU103      0.2616
     80  O         55.4310    7.2620   13.0650 O.2   103  GLU103     -0.2715
     81  CB        53.4400    5.9560   14.9170 C.3   103  GLU103      0.0429
     82  CG        53.4100    6.8210   16.1710 C.3   103  GLU103      0.1163
     83  CD        53.6250    6.0080   17.4300 C.2   103  GLU103      0.3649
     84  OE1       53.6140    4.7600   17.3400 O.co2 103  GLU103     -0.2457
     85  OE2       53.8100    6.6100   18.5180 O.co2 103  GLU103     -0.2457
     86  N         53.9800    8.9650   13.4160 N.am  104  TYR104     -0.1960
     87  CA        54.9480   10.0690   13.3470 C.3   104  TYR104      0.1771
     88  C         55.6460   10.3570   14.6900 C.2   104  TYR104      0.2619
     89  O         54.9810   10.7350   15.7030 O.2   104  TYR104     -0.2715
     90  CB        54.2280   11.3430   12.9040 C.3   104  TYR104      0.0574
     91  CG        55.0970   12.5850   12.8780 C.ar  104  TYR104     -0.0198
     92  CD1       56.1580   12.7000   11.9700 C.ar  104  TYR104     -0.0009
     93  CD2       54.8540   13.6570   13.7480 C.ar  104  TYR104     -0.0009
     94  CE1       56.9820   13.8440   11.9360 C.ar  104  TYR104      0.0417
     95  CE2       55.6740   14.8280   13.7240 C.ar  104  TYR104      0.0417
     96  CZ        56.7380   14.9030   12.8190 C.ar  104  TYR104      0.1957
     97  OH        57.5460   16.0280   12.7600 O.3   104  TYR104     -0.2866
     98  N         56.9720   10.2130   14.7300 N.am  105  ALA105     -0.1977
     99  CA        57.6770   10.6420   15.9290 C.3   105  ALA105      0.1597
    100  C         58.2470   12.0160   15.6750 C.2   105  ALA105      0.2287
    101  O         59.0700   12.1970   14.7970 O.2   105  ALA105     -0.2864
    102  CB        58.7470    9.6630   16.3260 C.3   105  ALA105      0.0319
    103  N         62.2190   12.9480   15.5410 N.3   108  GLY108     -0.1210
    104  CA        63.0590   12.1890   14.6410 C.3   108  GLY108      0.1956
    105  C         63.8510   11.0730   15.3080 C.2   108  GLY108      0.2612
    106  O         63.4500   10.5220   16.3390 O.2   108  GLY108     -0.2717
    107  N         64.9870   10.7460   14.7060 N.am  109  SER109     -0.1952
    108  CA        65.8080    9.6620   15.1700 C.3   109  SER109      0.1924
    109  C         66.5060   10.0590   16.4590 C.2   109  SER109      0.2314
    110  O         66.7680   11.2360   16.7170 O.2   109  SER109     -0.2863
    111  CB        66.8300    9.2980   14.1090 C.3   109  SER109      0.2116
    112  OG        67.8500   10.2730   14.0790 O.3   109  SER109     -0.2180
    113  N         70.2470    5.4690   15.1470 N.3   155  ARG155     -0.1231
    114  CA        69.5300    5.9960   13.9470 C.3   155  ARG155      0.1694
    115  C         68.1490    5.3220   13.6900 C.2   155  ARG155      0.2592
    116  O         67.2600    5.8900   13.0080 O.2   155  ARG155     -0.2718
    117  CB        70.4460    5.9840   12.7080 C.3   155  ARG155      0.0321
    118  CG        70.6500    4.6090   12.0900 C.3   155  ARG155      0.0489
    119  CD        71.9820    4.3640   11.3210 C.3   155  ARG155      0.2205
    120  NE        72.0490    2.9050   11.1390 N.pl3 155  ARG155     -0.0865
    121  CZ        72.9200    2.0680   11.7190 C.cat 155  ARG155      0.5346
    122  NH1       73.9140    2.5120   12.4740 N.pl3 155  ARG155      0.1354
    123  NH2       72.8060    0.7640   11.5050 N.pl3 155  ARG155      0.1354
    124  N         67.9780    4.1350   14.2860 N.am  156  ASN156     -0.1974
    125  CA        66.7620    3.3060   14.1600 C.3   156  ASN156      0.1688
    126  C         65.8120    3.2910   15.3790 C.2   156  ASN156      0.2292
    127  O         64.8850    2.4750   15.4470 O.2   156  ASN156     -0.2864
    128  CB        67.1560    1.8830   13.8100 C.3   156  ASN156      0.1181
    129  CG        67.8890    1.7930   12.4810 C.2   156  ASN156      0.2629
    130  OD1       68.7680    0.9500   12.3230 O.2   156  ASN156     -0.2716
    131  ND2       67.5310    2.6540   11.5220 N.am  156  ASN156     -0.0877
    132  N         63.3220    6.0150   17.1580 N.3   158  LEU158     -0.1245
    133  CA        62.7200    7.3450   17.0330 C.3   158  LEU158      0.1561
    134  C         62.2820    7.9630   18.3970 C.2   158  LEU158      0.2260
    135  O         62.0360    7.2400   19.3770 O.2   158  LEU158     -0.2867
    136  CB        61.5480    7.2900   16.0670 C.3   158  LEU158      0.0270
    137  CG        61.9300    6.8640   14.6420 C.3   158  LEU158      0.0019
    138  CD1       60.7000    6.2230   14.0050 C.3   158  LEU158      0.0001
    139  CD2       62.4350    8.0530   13.8250 C.3   158  LEU158      0.0001
    140  N         62.3230    1.1450   15.7370 N.3   168  SER168     -0.1202
    141  CA        61.9390    1.3870   14.3550 C.3   168  SER168      0.2020
    142  C         62.7020    0.5070   13.3490 C.2   168  SER168      0.2618
    143  O         63.5910   -0.2300   13.7200 O.2   168  SER168     -0.2717
    144  CB        62.2450    2.8400   14.0620 C.3   168  SER168      0.2103
    145  OG        61.6970    3.2290   12.8290 O.3   168  SER168     -0.2182
    146  N         62.3590    0.6120   12.0710 N.am  169  ASP169     -0.1973
    147  CA        63.1340    0.0000   10.9780 C.3   169  ASP169      0.1709
    148  C         63.2000   -1.5390   11.0830 C.2   169  ASP169      0.2293
    149  O         64.1740   -2.1190   11.5600 O.2   169  ASP169     -0.2864
    150  CB        64.5140    0.6640   10.8180 C.3   169  ASP169      0.1436
    151  CG        65.2650    0.1990    9.5330 C.2   169  ASP169      0.3671
    152  OD1       64.6140   -0.1580    8.5000 O.co2 169  ASP169     -0.2456
    153  OD2       66.5260    0.1630    9.5520 O.co2 169  ASP169     -0.2456
@<TRIPOS>BOND
     1    21    19   ar
     2    20    19   ar
     3    19    18    1
     4    29    28    2
     5    28    27    1
     6    28    37   am
     7    18    17    1
     8    27    30    1
     9    27    26    1
    10    30    31    1
    11    38    39    1
    12    38    37    1
    13    39    40    2
    14    56    55    2
    15    17    14    1
    16    55    54    1
    17    33    31   ar
    18    33    35   ar
    19    31    32   ar
    20    25    24    2
    21    14    13    1
    22    14    15    1
    23    41    42    1
    24    35    36   ar
    25    54    53    1
    26    54    57    1
    27    24    23    1
    28    32    34   ar
    29    12    11    2
    30    43    44    2
    31    43    42    1
    32    13    11   am
    33    15    22   am
    34    15    16    2
    35    42    45    1
    36    22    23    1
    37    11    10    1
    38    57    58    1
    39     1     2    1
    40    36    34   ar
    41    59    58    1
    42    59    60    1
    43     9    10    1
    44     9     3   am
    45    45    47    1
    46    45    46    1
    47     2     3    1
    48     2     5    1
    49     3     4    2
    50    61    60    1
    51    50    51    2
    52    50    49    1
    53     5     6    1
    54     6     8    1
    55     6     7    1
    56   152   151   ar
    57    49    52    1
    58    49    48    1
    59    70    71    1
    60   151   153   ar
    61   151   150    1
    62    75    74    1
    63    76    74    1
    64    71    74    1
    65    71    72    1
    66    73    72    2
    67   150   147    1
    68   147   148    1
    69   147   146    1
    70   148   149    2
    71   120   119    1
    72   120   121    2
    73    72    77   am
    74   119   118    1
    75   123   121    1
    76   131   129   am
    77   121   122    1
    78    94    92   ar
    79    94    96   ar
    80    92    91   ar
    81   146   142   am
    82   118   117    1
    83   130   129    2
    84   129   128    1
    85    77    78    1
    86   117   114    1
    87    97    96    1
    88    96    95   ar
    89   145   144    1
    90    91    90    1
    91    91    93   ar
    92    90    87    1
    93   116   115    2
    94    80    79    2
    95    79    86   am
    96    79    78    1
    97    87    86    1
    98    87    88    1
    99   142   143    2
   100   142   141    1
   101    78    81    1
   102   115   114    1
   103   115   124   am
   104    95    93   ar
   105   128   125    1
   106   139   137    1
   107   114   113    1
   108    68    66    1
   109   138   137    1
   110   144   141    1
   111   112   111    1
   112   111   108    1
   113   125   124    1
   114   125   126    1
   115   141   140    1
   116    67    66    1
   117    67    69    1
   118   104   105    1
   119   104   103    1
   120   137   136    1
   121    88    98   am
   122    88    89    2
   123   107   108    1
   124   107   105   am
   125    98    99    1
   126   101   100    2
   127    81    82    1
   128    66    63    1
   129   108   109    1
   130   105   106    2
   131   126   127    2
   132    65    64    2
   133   100    99    1
   134    64    63    1
   135    99   102    1
   136   136   133    1
   137    82    83    1
   138    63    62    1
   139   109   110    2
   140   133   132    1
   141   133   134    1
   142    84    83   ar
   143    83    85   ar
   144   134   135    2
