@<TRIPOS>MOLECULE
tmp/2ivuA00.pdb
 177 167 0 0 0
SMALL
GASTEIGER

@<TRIPOS>ATOM
      1  N        -21.0900   16.8170   -2.9810 N.3    28  LYS28      -0.1245
      2  CA       -22.5500   16.9050   -2.8670 C.3    28  LYS28       0.1561
      3  C        -23.2100   15.5940   -3.2390 C.2    28  LYS28       0.2260
      4  O        -22.6500   14.7920   -4.0030 O.2    28  LYS28      -0.2867
      5  CB       -23.1130   18.0500   -3.7330 C.3    28  LYS28       0.0271
      6  CG       -23.0070   17.7650   -5.2340 C.3    28  LYS28       0.0035
      7  CD       -23.5780   18.8600   -6.1220 C.3    28  LYS28       0.0206
      8  CE       -23.3880   18.4350   -7.5970 C.3    28  LYS28       0.1093
      9  NZ       -24.0240   19.4240   -8.5030 N.3    28  LYS28      -0.1314
     10  N        -25.5460   13.3350   -5.2440 N.3    30  LEU30      -0.1231
     11  CA       -26.0960   13.3320   -6.5950 C.3    30  LEU30       0.1693
     12  C        -27.4540   12.6070   -6.6560 C.2    30  LEU30       0.2592
     13  O        -28.3310   12.9640   -7.4640 O.2    30  LEU30      -0.2718
     14  CB       -25.0990   12.7020   -7.5760 C.3    30  LEU30       0.0284
     15  CG       -23.6910   13.3070   -7.7270 C.3    30  LEU30       0.0019
     16  CD1      -22.8900   12.5840   -8.7690 C.3    30  LEU30       0.0001
     17  CD2      -23.7810   14.7780   -8.0580 C.3    30  LEU30       0.0001
     18  N        -27.6090   11.5970   -5.7940 N.am   31  GLY31      -0.1957
     19  CA       -28.7850   10.7450   -5.7630 C.3    31  GLY31       0.1869
     20  C        -28.7980    9.7320   -4.6280 C.2    31  GLY31       0.2309
     21  O        -27.7440    9.3320   -4.1160 O.2    31  GLY31      -0.2863
     22  N        -25.3400    8.0370   -3.8230 N.3    38  VAL38      -0.1245
     23  CA       -24.2290    8.4180   -4.6920 C.3    38  VAL38       0.1561
     24  C        -23.8000    9.8560   -4.3980 C.2    38  VAL38       0.2260
     25  O        -24.6630   10.7340   -4.2810 O.2    38  VAL38      -0.2867
     26  CB       -24.6320    8.2870   -6.1630 C.3    38  VAL38       0.0252
     27  CG1      -23.6220    8.9850   -7.0470 C.3    38  VAL38       0.0019
     28  CG2      -24.7430    6.8030   -6.5400 C.3    38  VAL38       0.0019
     29  N        -17.6100    9.6190   -9.3200 N.3    56  ALA56      -0.1231
     30  CA       -18.7860    9.4400   -8.4430 C.3    56  ALA56       0.1694
     31  C        -18.5620    8.2810   -7.4840 C.2    56  ALA56       0.2592
     32  O        -17.8910    7.3070   -7.8260 O.2    56  ALA56      -0.2718
     33  CB       -20.0730    9.2570   -9.2380 C.3    56  ALA56       0.0304
     34  N        -19.1290    8.4040   -6.2890 N.am   57  VAL57      -0.1966
     35  CA       -18.9520    7.4130   -5.2320 C.3    57  VAL57       0.1727
     36  C        -20.3240    6.9430   -4.7230 C.2    57  VAL57       0.2616
     37  O        -21.1620    7.7580   -4.3240 O.2    57  VAL57      -0.2715
     38  CB       -18.0710    7.9700   -4.0540 C.3    57  VAL57       0.0290
     39  CG1      -18.0370    7.0130   -2.8660 C.3    57  VAL57       0.0023
     40  CG2      -16.6440    8.2610   -4.5310 C.3    57  VAL57       0.0023
     41  N        -20.5320    5.6230   -4.7600 N.am   58  LYS58      -0.1977
     42  CA       -21.6790    4.9730   -4.1340 C.3    58  LYS58       0.1596
     43  C        -21.3370    4.3920   -2.7580 C.2    58  LYS58       0.2287
     44  O        -20.2730    3.8200   -2.5500 O.2    58  LYS58      -0.2864
     45  CB       -22.1820    3.8630   -5.0330 C.3    58  LYS58       0.0298
     46  CG       -23.5180    3.2850   -4.6430 C.3    58  LYS58       0.0038
     47  CD       -24.0540    2.5940   -5.8350 C.3    58  LYS58       0.0206
     48  CE       -25.4440    2.1980   -5.6340 C.3    58  LYS58       0.1093
     49  NZ       -25.9000    1.4570   -6.8480 N.3    58  LYS58      -0.1314
     50  N        -22.7290   -5.6570   -6.3830 N.3    75  GLU75      -0.1245
     51  CA       -22.4460   -4.6440   -7.3870 C.3    75  GLU75       0.1567
     52  C        -20.9370   -4.4610   -7.6000 C.2    75  GLU75       0.2260
     53  O        -20.4790   -4.3860   -8.7360 O.2    75  GLU75      -0.2867
     54  CB       -23.0980   -3.3280   -6.9910 C.3    75  GLU75       0.0388
     55  CG       -22.5850   -2.1240   -7.7560 C.3    75  GLU75       0.1160
     56  CD       -23.6060   -1.0280   -7.8800 C.2    75  GLU75       0.3649
     57  OE1      -24.2030   -0.6390   -6.8370 O.co2  75  GLU75      -0.2457
     58  OE2      -23.8010   -0.5740   -9.0370 O.co2  75  GLU75      -0.2457
     59  N        -18.9990   -5.3020  -11.0290 N.3    79  LEU79      -0.1245
     60  CA       -18.2450   -4.2050  -11.6430 C.3    79  LEU79       0.1561
     61  C        -16.7760   -4.5080  -11.9030 C.2    79  LEU79       0.2260
     62  O        -16.2310   -4.0180  -12.8710 O.2    79  LEU79      -0.2867
     63  CB       -18.3660   -2.9420  -10.8220 C.3    79  LEU79       0.0270
     64  CG       -19.6850   -2.1970  -10.9540 C.3    79  LEU79       0.0019
     65  CD1      -19.6370   -0.9510  -10.1190 C.3    79  LEU79       0.0001
     66  CD2      -19.9430   -1.8350  -12.3930 C.3    79  LEU79       0.0001
     67  N        -20.9140    1.3210  -17.1360 N.3    88  ILE88      -0.1245
     68  CA       -20.2140    2.2190  -16.1940 C.3    88  ILE88       0.1561
     69  C        -18.8380    1.6520  -15.7800 C.2    88  ILE88       0.2260
     70  O        -18.7160    0.4630  -15.4680 O.2    88  ILE88      -0.2867
     71  CB       -21.1190    2.5640  -14.9340 C.3    88  ILE88       0.0252
     72  CG1      -20.5840    3.7590  -14.1410 C.3    88  ILE88       0.0019
     73  CG2      -21.2920    1.3580  -14.0230 C.3    88  ILE88       0.0019
     74  CD1      -20.5460    5.0590  -14.9040 C.3    88  ILE88       0.0001
     75  N        -17.6970    2.7370   -3.3010 N.3   102  LEU102     -0.1245
     76  CA       -17.3560    2.3210   -4.6600 C.3   102  LEU102      0.1561
     77  C        -17.1710    3.5690   -5.5230 C.2   102  LEU102      0.2260
     78  O        -18.0050    4.5040   -5.4890 O.2   102  LEU102     -0.2867
     79  CB       -18.4500    1.4440   -5.2640 C.3   102  LEU102      0.0270
     80  CG       -18.9550    0.2300   -4.4890 C.3   102  LEU102      0.0019
     81  CD1      -19.9500   -0.5790   -5.3390 C.3   102  LEU102      0.0001
     82  CD2      -17.8080   -0.6820   -3.9640 C.3   102  LEU102      0.0001
     83  N        -16.4830    5.1940   -9.2650 N.3   104  VAL104     -0.1231
     84  CA       -16.7360    4.9370  -10.6550 C.3   104  VAL104      0.1692
     85  C        -16.4450    6.2210  -11.4190 C.2   104  VAL104      0.2592
     86  O        -16.3680    7.3270  -10.8250 O.2   104  VAL104     -0.2718
     87  CB       -18.2090    4.4300  -10.9180 C.3   104  VAL104      0.0266
     88  CG1      -18.5210    3.1760  -10.1290 C.3   104  VAL104      0.0020
     89  CG2      -19.2000    5.4870  -10.6280 C.3   104  VAL104      0.0020
     90  N        -16.2700    6.0680  -12.7260 N.am  105  GLU105     -0.1966
     91  CA       -16.1250    7.1980  -13.6120 C.3   105  GLU105      0.1733
     92  C        -17.3800    8.0690  -13.5830 C.2   105  GLU105      0.2616
     93  O        -18.5040    7.5680  -13.6900 O.2   105  GLU105     -0.2715
     94  CB       -15.8680    6.7060  -15.0490 C.3   105  GLU105      0.0429
     95  CG       -15.3650    7.8100  -16.0030 C.3   105  GLU105      0.1163
     96  CD       -15.0340    7.3070  -17.4250 C.2   105  GLU105      0.3649
     97  OE1      -15.5270    6.2220  -17.8030 O.co2 105  GLU105     -0.2457
     98  OE2      -14.2880    8.0290  -18.1560 O.co2 105  GLU105     -0.2457
     99  N        -17.1740    9.3790  -13.4660 N.am  106  TYR106     -0.1960
    100  CA       -18.2620   10.3230  -13.4570 C.3   106  TYR106      0.1771
    101  C        -18.9270   10.4940  -14.8330 C.2   106  TYR106      0.2619
    102  O        -18.2580   10.6540  -15.8530 O.2   106  TYR106     -0.2715
    103  CB       -17.7240   11.6260  -12.9530 C.3   106  TYR106      0.0574
    104  CG       -18.7220   12.7380  -12.8500 C.ar  106  TYR106     -0.0198
    105  CD1      -19.6890   12.7470  -11.8320 C.ar  106  TYR106     -0.0009
    106  CD2      -18.6800   13.8180  -13.7390 C.ar  106  TYR106     -0.0009
    107  CE1      -20.5960   13.8070  -11.7160 C.ar  106  TYR106      0.0417
    108  CE2      -19.6120   14.8640  -13.6390 C.ar  106  TYR106      0.0417
    109  CZ       -20.5450   14.8550  -12.6160 C.ar  106  TYR106      0.1957
    110  OH       -21.4370   15.8940  -12.5090 O.3   106  TYR106     -0.2866
    111  N        -20.2580   10.4380  -14.8470 N.am  107  ALA107     -0.1963
    112  CA       -21.0580   10.6160  -16.0460 C.3   107  ALA107      0.1728
    113  C        -21.6450   12.0150  -16.0370 C.2   107  ALA107      0.2616
    114  O        -22.5930   12.2910  -15.3010 O.2   107  ALA107     -0.2715
    115  CB       -22.1340    9.6050  -16.0830 C.3   107  ALA107      0.0334
    116  N        -21.0600   12.9000  -16.8480 N.am  108  LYS108     -0.1963
    117  CA       -21.4890   14.3210  -16.9690 C.3   108  LYS108      0.1728
    118  C        -22.9980   14.6460  -16.8470 C.2   108  LYS108      0.2616
    119  O        -23.3650   15.5880  -16.1640 O.2   108  LYS108     -0.2715
    120  CB       -20.9460   14.9030  -18.2710 C.3   108  LYS108      0.0311
    121  CG       -21.2220   16.3810  -18.5190 C.3   108  LYS108      0.0038
    122  CD       -20.2180   16.9080  -19.5540 C.3   108  LYS108      0.0206
    123  CE       -20.5880   18.2940  -20.0920 C.3   108  LYS108      0.1093
    124  NZ       -19.7940   18.5480  -21.3590 N.3   108  LYS108     -0.1314
    125  N        -23.8680   13.8970  -17.5150 N.am  109  TYR109     -0.1960
    126  CA       -25.2890   14.2760  -17.5800 C.3   109  TYR109      0.1771
    127  C        -26.2010   13.5350  -16.6120 C.2   109  TYR109      0.2620
    128  O        -27.3870   13.8220  -16.5460 O.2   109  TYR109     -0.2715
    129  CB       -25.8080   14.1850  -19.0190 C.3   109  TYR109      0.0574
    130  CG       -25.0380   15.0710  -19.9570 C.ar  109  TYR109     -0.0198
    131  CD1      -25.2630   16.4630  -19.9800 C.ar  109  TYR109     -0.0009
    132  CD2      -24.0660   14.5380  -20.7940 C.ar  109  TYR109     -0.0009
    133  CE1      -24.5540   17.2890  -20.8200 C.ar  109  TYR109      0.0417
    134  CE2      -23.3380   15.3480  -21.6470 C.ar  109  TYR109      0.0417
    135  CZ       -23.5820   16.7280  -21.6530 C.ar  109  TYR109      0.1957
    136  OH       -22.8460   17.5400  -22.4980 O.3   109  TYR109     -0.2866
    137  N        -25.6380   12.6080  -15.8450 N.am  110  GLY110     -0.1940
    138  CA       -26.3850   11.8830  -14.8340 C.3   110  GLY110      0.2014
    139  C        -27.3110   10.8710  -15.4600 C.2   110  GLY110      0.2639
    140  O        -27.0050   10.3380  -16.5150 O.2   110  GLY110     -0.2714
    141  N        -28.4530   10.6240  -14.8350 N.am  111  SER111     -0.1949
    142  CA       -29.2950    9.5510  -15.2810 C.3   111  SER111      0.1924
    143  C        -29.9920    9.8990  -16.6080 C.2   111  SER111      0.2314
    144  O        -30.3410   11.0470  -16.8560 O.2   111  SER111     -0.2863
    145  CB       -30.2810    9.1500  -14.1850 C.3   111  SER111      0.2116
    146  OG       -31.4320    9.9530  -14.2040 O.3   111  SER111     -0.2180
    147  N        -35.3310   16.6340  -19.0480 N.3   118  GLU118     -0.1245
    148  CA       -34.8700   18.0170  -19.2010 C.3   118  GLU118      0.1567
    149  C        -34.8120   18.4120  -20.6810 C.2   118  GLU118      0.2260
    150  O        -34.3790   19.5120  -20.9930 O.2   118  GLU118     -0.2867
    151  CB       -33.5050   18.2360  -18.5160 C.3   118  GLU118      0.0388
    152  CG       -32.3580   17.5550  -19.1090 C.3   118  GLU118      0.1160
    153  CD       -30.9790   17.8040  -18.3310 C.2   118  GLU118      0.3649
    154  OE1      -30.9570   18.6210  -17.4620 O.co2 118  GLU118     -0.2457
    155  OE2      -30.1690   17.1030  -18.7480 O.co2 118  GLU118     -0.2457
    156  N        -26.7350    5.8460  -17.1930 N.3   158  LEU158     -0.1245
    157  CA       -26.1410    7.1730  -17.0970 C.3   158  LEU158      0.1561
    158  C        -25.6980    7.7170  -18.4700 C.2   158  LEU158      0.2260
    159  O        -25.4620    6.9680  -19.4120 O.2   158  LEU158     -0.2867
    160  CB       -24.9920    7.1690  -16.1060 C.3   158  LEU158      0.0270
    161  CG       -25.3770    6.7360  -14.6930 C.3   158  LEU158      0.0019
    162  CD1      -24.1570    6.1470  -14.0410 C.3   158  LEU158      0.0001
    163  CD2      -25.9480    7.9160  -13.8860 C.3   158  LEU158      0.0001
    164  N        -25.7550    0.9500  -15.6890 N.3   168  SER168     -0.1202
    165  CA       -25.4250    1.2200  -14.3060 C.3   168  SER168      0.2020
    166  C        -26.2400    0.3290  -13.3560 C.2   168  SER168      0.2618
    167  O        -27.1040   -0.4370  -13.7870 O.2   168  SER168     -0.2717
    168  CB       -25.7390    2.6940  -14.0310 C.3   168  SER168      0.2103
    169  OG       -25.1260    3.1150  -12.8340 O.3   168  SER168     -0.2182
    170  N        -25.9540    0.4490  -12.0580 N.am  169  ASP169     -0.1973
    171  CA       -26.7040   -0.2180  -10.9880 C.3   169  ASP169      0.1709
    172  C        -26.7590   -1.7450  -11.1370 C.2   169  ASP169      0.2293
    173  O        -27.7910   -2.3420  -11.4490 O.2   169  ASP169     -0.2864
    174  CB       -28.0720    0.4260  -10.7590 C.3   169  ASP169      0.1436
    175  CG       -27.9610    1.8790  -10.2580 C.2   169  ASP169      0.3671
    176  OD1      -27.0600    2.2040   -9.4350 O.co2 169  ASP169     -0.2456
    177  OD2      -28.7780    2.7320  -10.7040 O.co2 169  ASP169     -0.2456
@<TRIPOS>BOND
     1   136   135    1
     2   135   134   ar
     3   135   133   ar
     4   134   132   ar
     5   124   123    1
     6   150   149    2
     7   133   131   ar
     8   132   130   ar
     9   149   148    1
    10   123   122    1
    11   131   130   ar
    12   130   129    1
    13   122   121    1
    14   159   158    2
    15   148   147    1
    16   148   151    1
    17   152   151    1
    18   152   153    1
    19   129   126    1
    20   155   153   ar
    21   121   120    1
    22   158   157    1
    23   153   154   ar
    24   120   117    1
    25    98    96   ar
    26    97    96   ar
    27   126   125    1
    28   126   127    1
    29   125   118   am
    30    96    95    1
    31   156   157    1
    32    67    68    1
    33   157   160    1
    34   117   116    1
    35   117   118    1
    36   144   143    2
    37   116   113   am
    38   118   119    2
    39   127   128    2
    40   127   137   am
    41   143   142    1
    42   140   139    2
    43    68    69    1
    44    68    71    1
    45   160   161    1
    46   115   112    1
    47   112   113    1
    48   112   111    1
    49   113   114    2
    50    95    94    1
    51   102   101    2
    52   137   138    1
    53    69    70    2
    54   164   165    1
    55   139   141   am
    56   139   138    1
    57   142   141    1
    58   142   145    1
    59    94    91    1
    60    71    72    1
    61    71    73    1
    62    74    72    1
    63   111   101   am
    64   101   100    1
    65   161   162    1
    66   161   163    1
    67   165   168    1
    68   165   166    1
    69   146   145    1
    70   168   169    1
    71   167   166    2
    72   106   108   ar
    73   106   104   ar
    74    93    92    2
    75   108   109   ar
    76    91    92    1
    77    91    90    1
    78    92    99   am
    79    99   100    1
    80   100   103    1
    81   166   170   am
    82   103   104    1
    83    62    61    2
    84   104   105   ar
    85    90    85   am
    86   109   110    1
    87   109   107   ar
    88    66    64    1
    89   170   171    1
    90    61    60    1
    91   105   107   ar
    92    60    59    1
    93    60    63    1
    94   173   172    2
    95    85    86    2
    96    85    84    1
    97   172   171    1
    98   171   174    1
    99    64    63    1
   100    64    65    1
   101    87    84    1
   102    87    89    1
   103    87    88    1
   104   174   175    1
   105   177   175   ar
   106    84    83    1
   107   175   176   ar
   108    29    30    1
   109    33    30    1
   110    58    56   ar
   111    16    15    1
   112    53    52    2
   113     9     8    1
   114    30    31    1
   115    17    15    1
   116    56    55    1
   117    56    57   ar
   118    32    31    2
   119    55    54    1
   120    15    14    1
   121    52    51    1
   122     8     7    1
   123    14    11    1
   124    31    34   am
   125    13    12    2
   126    51    54    1
   127    51    50    1
   128    27    26    1
   129    49    48    1
   130    12    11    1
   131    12    18   am
   132    11    10    1
   133    28    26    1
   134    34    35    1
   135    26    23    1
   136     7     6    1
   137    47    48    1
   138    47    46    1
   139    18    19    1
   140    19    20    1
   141    77    78    2
   142    77    76    1
   143    81    80    1
   144    79    76    1
   145    79    80    1
   146     6     5    1
   147    35    36    1
   148    35    38    1
   149    45    46    1
   150    45    42    1
   151    41    36   am
   152    41    42    1
   153    36    37    2
   154    23    24    1
   155    23    22    1
   156    76    75    1
   157    20    21    2
   158    40    38    1
   159    80    82    1
   160    24    25    2
   161    42    43    1
   162    38    39    1
   163     4     3    2
   164     5     2    1
   165     3     2    1
   166     1     2    1
   167    43    44    2
