@<TRIPOS>MOLECULE
tmp/2ivvA00.pdb
 158 147 0 0 0
SMALL
GASTEIGER

@<TRIPOS>ATOM
      1  N         25.4350   13.2790    5.0450 N.3    27  LEU27      -0.1231
      2  CA        25.9710   13.3430    6.4000 C.3    27  LEU27       0.1693
      3  C         27.3400   12.6800    6.4700 C.2    27  LEU27       0.2593
      4  O         28.1480   13.0470    7.3200 O.2    27  LEU27      -0.2718
      5  CB        25.0120   12.7080    7.4090 C.3    27  LEU27       0.0284
      6  CG        23.7200   13.4690    7.7070 C.3    27  LEU27       0.0019
      7  CD1       22.8480   12.5710    8.5800 C.3    27  LEU27       0.0001
      8  CD2       24.0920   14.7570    8.4770 C.3    27  LEU27       0.0001
      9  N         27.5840   11.7290    5.5640 N.am   28  GLY28      -0.1942
     10  CA        28.8270   10.9820    5.5200 C.3    28  GLY28       0.2014
     11  C         28.8220    9.8770    4.4720 C.2    28  GLY28       0.2638
     12  O         27.7710    9.4340    3.9960 O.2    28  GLY28      -0.2714
     13  N         30.0250    9.4610    4.0910 N.am   29  GLU29      -0.1977
     14  CA        30.2540    8.3750    3.1510 C.3    29  GLU29       0.1602
     15  C         31.1930    7.3880    3.8230 C.2    29  GLU29       0.2287
     16  O         31.3630    7.4150    5.0630 O.2    29  GLU29      -0.2864
     17  CB        30.8300    8.8770    1.8240 C.3    29  GLU29       0.0415
     18  CG        29.8650    9.8210    1.0610 C.3    29  GLU29       0.1163
     19  CD        30.5590   10.9300    0.2140 C.2    29  GLU29       0.3649
     20  OE1       31.7860   11.0960    0.2840 O.co2  29  GLU29      -0.2457
     21  OE2       29.8590   11.6780   -0.5100 O.co2  29  GLU29      -0.2457
     22  N         25.3770    8.2240    3.5070 N.3    35  VAL35      -0.1245
     23  CA        24.3100    8.5480    4.4550 C.3    35  VAL35       0.1561
     24  C         23.9160    9.9950    4.2710 C.2    35  VAL35       0.2260
     25  O         24.8040   10.8660    4.1940 O.2    35  VAL35      -0.2867
     26  CB        24.6930    8.3000    5.9040 C.3    35  VAL35       0.0252
     27  CG1       23.6050    8.8540    6.8130 C.3    35  VAL35       0.0019
     28  CG2       24.9200    6.8060    6.1630 C.3    35  VAL35       0.0019
     29  N         17.7170    9.4320    9.2130 N.3    53  ALA53      -0.1231
     30  CA        18.9030    9.3070    8.3720 C.3    53  ALA53       0.1694
     31  C         18.6100    8.1750    7.4030 C.2    53  ALA53       0.2592
     32  O         17.8390    7.2810    7.7180 O.2    53  ALA53      -0.2718
     33  CB        20.1710    9.0300    9.2150 C.3    53  ALA53       0.0304
     34  N         19.1980    8.2630    6.2150 N.am   54  VAL54      -0.1966
     35  CA        18.9810    7.3010    5.1470 C.3    54  VAL54       0.1727
     36  C         20.3280    6.8190    4.6280 C.2    54  VAL54       0.2616
     37  O         21.1650    7.6330    4.2220 O.2    54  VAL54      -0.2715
     38  CB        18.1540    7.9300    3.9800 C.3    54  VAL54       0.0290
     39  CG1       18.1370    7.0280    2.7510 C.3    54  VAL54       0.0023
     40  CG2       16.7560    8.1540    4.4240 C.3    54  VAL54       0.0023
     41  N         20.5450    5.4970    4.6570 N.am   55  LYS55      -0.1977
     42  CA        21.7120    4.9340    3.9600 C.3    55  LYS55       0.1596
     43  C         21.3230    4.3420    2.5810 C.2    55  LYS55       0.2287
     44  O         20.3080    3.6180    2.4470 O.2    55  LYS55      -0.2864
     45  CB        22.4050    3.8870    4.8190 C.3    55  LYS55       0.0298
     46  CG        23.7400    3.3660    4.2610 C.3    55  LYS55       0.0038
     47  CD        24.3130    2.2900    5.1790 C.3    55  LYS55       0.0206
     48  CE        25.1030    2.8750    6.3350 C.3    55  LYS55       0.1093
     49  NZ        25.8740    1.8080    7.0770 N.3    55  LYS55      -0.1314
     50  N         22.9310   -5.5090    6.3270 N.3    72  GLU72      -0.1245
     51  CA        22.6460   -4.5340    7.3680 C.3    72  GLU72       0.1567
     52  C         21.1100   -4.4050    7.6000 C.2    72  GLU72       0.2260
     53  O         20.6440   -4.4560    8.7160 O.2    72  GLU72      -0.2867
     54  CB        23.2430   -3.1870    6.9640 C.3    72  GLU72       0.0388
     55  CG        22.7820   -2.0220    7.7760 C.3    72  GLU72       0.1160
     56  CD        23.8650   -0.9550    7.9220 C.2    72  GLU72       0.3649
     57  OE1       24.3140   -0.4540    6.8950 O.co2  72  GLU72      -0.2457
     58  OE2       24.2520   -0.6140    9.0580 O.co2  72  GLU72      -0.2457
     59  N         19.1590   -5.3490   11.0180 N.3    76  LEU76      -0.1245
     60  CA        18.4580   -4.2850   11.7300 C.3    76  LEU76       0.1561
     61  C         16.9810   -4.5970   11.9590 C.2    76  LEU76       0.2260
     62  O         16.4420   -4.2120   12.9810 O.2    76  LEU76      -0.2867
     63  CB        18.6160   -2.9440   11.0290 C.3    76  LEU76       0.0270
     64  CG        19.9510   -2.2140   11.1830 C.3    76  LEU76       0.0019
     65  CD1       19.9780   -1.0530   10.2640 C.3    76  LEU76       0.0001
     66  CD2       20.2720   -1.7690   12.6080 C.3    76  LEU76       0.0001
     67  N         21.0040    1.4030   17.0190 N.3    85  ILE85      -0.1245
     68  CA        20.2690    2.2680   16.0920 C.3    85  ILE85       0.1561
     69  C         18.9300    1.6460   15.6190 C.2    85  ILE85       0.2260
     70  O         18.8540    0.4760   15.3020 O.2    85  ILE85      -0.2867
     71  CB        21.1910    2.7880   14.9130 C.3    85  ILE85       0.0252
     72  CG1       20.7210    4.1600   14.3800 C.3    85  ILE85       0.0019
     73  CG2       21.3530    1.7320   13.7980 C.3    85  ILE85       0.0019
     74  CD1       20.6590    5.2560   15.4460 C.3    85  ILE85       0.0001
     75  N         17.7490    2.7720    3.0990 N.3    99  LEU99      -0.1245
     76  CA        17.4010    2.3220    4.4290 C.3    99  LEU99       0.1561
     77  C         17.1970    3.5130    5.2960 C.2    99  LEU99       0.2260
     78  O         18.0690    4.3710    5.3760 O.2    99  LEU99      -0.2867
     79  CB        18.4890    1.4520    5.0710 C.3    99  LEU99       0.0270
     80  CG        19.0820    0.2770    4.3170 C.3    99  LEU99       0.0019
     81  CD1       20.0140   -0.5150    5.3030 C.3    99  LEU99       0.0001
     82  CD2       17.9350   -0.6340    3.7560 C.3    99  LEU99       0.0001
     83  N         16.6200    5.1050    8.9460 N.3   101  VAL101     -0.1231
     84  CA        16.8300    4.8350   10.3580 C.3   101  VAL101      0.1692
     85  C         16.7430    6.1140   11.1630 C.2   101  VAL101      0.2592
     86  O         16.8550    7.2000   10.6190 O.2   101  VAL101     -0.2718
     87  CB        18.2120    4.0700   10.6590 C.3   101  VAL101      0.0266
     88  CG1       18.3950    2.8260    9.7480 C.3   101  VAL101      0.0020
     89  CG2       19.3810    4.9770   10.5300 C.3   101  VAL101      0.0020
     90  N         16.4910    5.9320   12.4570 N.am  102  GLU102     -0.1966
     91  CA        16.7020    6.9070   13.4810 C.3   102  GLU102      0.1733
     92  C         17.8620    7.8550   13.1970 C.2   102  GLU102      0.2616
     93  O         18.9940    7.4250   12.9660 O.2   102  GLU102     -0.2715
     94  CB        17.0030    6.1300   14.7610 C.3   102  GLU102      0.0429
     95  CG        17.1410    6.9490   16.0230 C.3   102  GLU102      0.1163
     96  CD        17.2870    6.0880   17.3010 C.2   102  GLU102      0.3649
     97  OE1       17.5600    4.8580   17.2040 O.co2 102  GLU102     -0.2457
     98  OE2       17.1760    6.6740   18.4140 O.co2 102  GLU102     -0.2457
     99  N         17.5770    9.1480   13.2730 N.am  103  TYR103     -0.1960
    100  CA        18.5920   10.1750   13.1510 C.3   103  TYR103      0.1771
    101  C         19.3200   10.4160   14.4910 C.2   103  TYR103      0.2619
    102  O         18.6760   10.6690   15.5450 O.2   103  TYR103     -0.2715
    103  CB        17.9310   11.4500   12.6480 C.3   103  TYR103      0.0574
    104  CG        18.8390   12.6410   12.6480 C.ar  103  TYR103     -0.0198
    105  CD1       19.9800   12.6920   11.8150 C.ar  103  TYR103     -0.0009
    106  CD2       18.5740   13.7170   13.4900 C.ar  103  TYR103     -0.0009
    107  CE1       20.8150   13.8030   11.8300 C.ar  103  TYR103      0.0417
    108  CE2       19.4120   14.8290   13.5130 C.ar  103  TYR103      0.0417
    109  CZ        20.5020   14.8770   12.6830 C.ar  103  TYR103      0.1957
    110  OH        21.2990   15.9950   12.7430 O.3   103  TYR103     -0.2866
    111  N         20.6560   10.3150   14.4520 N.am  104  ALA104     -0.1977
    112  CA        21.4620   10.5620   15.6440 C.3   104  ALA104      0.1597
    113  C         22.0480   11.9470   15.5270 C.2   104  ALA104      0.2287
    114  O         22.9740   12.1980   14.7370 O.2   104  ALA104     -0.2864
    115  CB        22.5370    9.5260   15.8150 C.3   104  ALA104      0.0319
    116  N         25.8750   12.7390   15.5270 N.3   107  GLY107     -0.1210
    117  CA        26.7340   12.0890   14.5490 C.3   107  GLY107      0.1956
    118  C         27.4770   10.9310   15.2080 C.2   107  GLY107      0.2612
    119  O         27.0020   10.3670   16.1950 O.2   107  GLY107     -0.2717
    120  N         28.6620   10.6150   14.6780 N.am  108  SER108     -0.1952
    121  CA        29.4740    9.5090   15.1860 C.3   108  SER108      0.1924
    122  C         30.1120    9.8310   16.5210 C.2   108  SER108      0.2314
    123  O         30.4080   10.9870   16.8280 O.2   108  SER108     -0.2863
    124  CB        30.5100    9.0540   14.1580 C.3   108  SER108      0.2116
    125  OG        31.6710    9.8760   14.1350 O.3   108  SER108     -0.2180
    126  N         33.8910    5.3280   15.2460 N.3   150  ARG150     -0.1245
    127  CA        33.2640    5.7770   13.9840 C.3   150  ARG150      0.1563
    128  C         31.9140    5.0990   13.6490 C.2   150  ARG150      0.2260
    129  O         31.1040    5.6670   12.9100 O.2   150  ARG150     -0.2867
    130  CB        34.2560    5.6960   12.7870 C.3   150  ARG150      0.0307
    131  CG        34.1990    4.3860   11.9640 C.3   150  ARG150      0.0489
    132  CD        35.4530    4.1190   11.0640 C.3   150  ARG150      0.2205
    133  NE        36.5460    3.4380   11.8020 N.pl3 150  ARG150     -0.0865
    134  CZ        36.6900    2.1100   11.9630 C.cat 150  ARG150      0.5346
    135  NH1       37.7280    1.6580   12.6660 N.pl3 150  ARG150      0.1354
    136  NH2       35.8210    1.2290   11.4460 N.pl3 150  ARG150      0.1354
    137  N         26.8880    5.7330   17.0410 N.3   153  LEU153     -0.1245
    138  CA        26.2280    7.0180   16.9100 C.3   153  LEU153      0.1561
    139  C         25.8320    7.6230   18.2950 C.2   153  LEU153      0.2260
    140  O         25.5420    6.8940   19.2690 O.2   153  LEU153     -0.2867
    141  CB        24.9960    6.8810   16.0020 C.3   153  LEU153      0.0270
    142  CG        25.2720    6.4300   14.5660 C.3   153  LEU153      0.0019
    143  CD1       23.9660    5.9340   13.9380 C.3   153  LEU153      0.0001
    144  CD2       25.8980    7.5280   13.6980 C.3   153  LEU153      0.0001
    145  N         25.8740    0.8980   15.6320 N.3   163  SER163     -0.1202
    146  CA        25.4130    1.1010   14.2760 C.3   163  SER163      0.2020
    147  C         26.2980    0.3110   13.2650 C.2   163  SER163      0.2618
    148  O         27.2010   -0.4010   13.6570 O.2   163  SER163     -0.2717
    149  CB        25.4900    2.6150   14.0460 C.3   163  SER163      0.2103
    150  OG        25.1780    2.9590   12.7430 O.3   163  SER163     -0.2182
    151  N         26.0240    0.4490   11.9700 N.am  164  ASP164     -0.1973
    152  CA        26.7970   -0.1830   10.8920 C.3   164  ASP164      0.1709
    153  C         26.8490   -1.7240   10.9990 C.2   164  ASP164      0.2293
    154  O         27.8820   -2.3240   11.2640 O.2   164  ASP164     -0.2864
    155  CB        28.1680    0.4970   10.7210 C.3   164  ASP164      0.1436
    156  CG        28.0320    1.9690   10.2410 C.2   164  ASP164      0.3671
    157  OD1       26.9870    2.3030    9.6070 O.co2 164  ASP164     -0.2456
    158  OD2       28.9550    2.8090   10.4990 O.co2 164  ASP164     -0.2456
@<TRIPOS>BOND
     1    21    19   ar
     2    19    20   ar
     3    19    18    1
     4    18    17    1
     5    17    14    1
     6    44    43    2
     7    43    42    1
     8    39    38    1
     9    75    76    1
    10    14    15    1
    11    14    13    1
    12    22    23    1
    13    82    80    1
    14    15    16    2
    15    42    41    1
    16    42    45    1
    17    38    40    1
    18    38    35    1
    19    12    11    2
    20    13    11   am
    21    25    24    2
    22    37    36    2
    23    46    45    1
    24    46    47    1
    25    24    23    1
    26    80    79    1
    27    80    81    1
    28    76    79    1
    29    76    77    1
    30    23    26    1
    31    11    10    1
    32    36    41   am
    33    36    35    1
    34     1     2    1
    35    35    34    1
    36    47    48    1
    37    77    78    2
    38    10     9    1
    39     9     3   am
    40    26    28    1
    41    26    27    1
    42    34    31   am
    43    50    51    1
    44    48    49    1
    45     2     3    1
    46     2     5    1
    47     3     4    2
    48    57    56   ar
    49    54    51    1
    50    54    55    1
    51    51    52    1
    52    31    32    2
    53    31    30    1
    54     5     6    1
    55    52    53    2
    56     6     8    1
    57     6     7    1
    58    55    56    1
    59    56    58   ar
    60    30    29    1
    61    30    33    1
    62    83    84    1
    63   157   156   ar
    64    88    87    1
    65   156   158   ar
    66   156   155    1
    67    65    64    1
    68    84    87    1
    69    84    85    1
    70    89    87    1
    71    86    85    2
    72   155   152    1
    73   152   153    1
    74   152   151    1
    75   153   154    2
    76    59    60    1
    77    63    64    1
    78    63    60    1
    79   132   133    1
    80   132   131    1
    81    85    90   am
    82    64    66    1
    83   136   134    1
    84    60    61    1
    85   133   134    2
    86   105   107   ar
    87   105   104   ar
    88   107   109   ar
    89    61    62    2
    90   134   135    1
    91   131   130    1
    92   151   147   am
    93    90    91    1
    94   104   103    1
    95   104   106   ar
    96   103   100    1
    97   109   110    1
    98   109   108   ar
    99   150   149    1
   100   130   127    1
   101   129   128    2
   102    93    92    2
   103   100    99    1
   104   100   101    1
   105    92    99   am
   106    92    91    1
   107   147   148    2
   108   147   146    1
   109    91    94    1
   110   106   108   ar
   111   128   127    1
   112   144   142    1
   113    73    71    1
   114   143   142    1
   115   127   126    1
   116   149   146    1
   117   125   124    1
   118   124   121    1
   119   146   145    1
   120    72    71    1
   121    72    74    1
   122   111   101   am
   123   111   112    1
   124   101   102    2
   125   117   118    1
   126   117   116    1
   127   142   141    1
   128   120   121    1
   129   120   118   am
   130   114   113    2
   131    94    95    1
   132    71    68    1
   133   121   122    1
   134   118   119    2
   135    70    69    2
   136   113   112    1
   137    69    68    1
   138   112   115    1
   139   141   138    1
   140    95    96    1
   141    68    67    1
   142   122   123    2
   143   138   137    1
   144   138   139    1
   145    97    96   ar
   146    96    98   ar
   147   139   140    2
