@<TRIPOS>MOLECULE
tmp/2iw3A00.pdb
 154 149 0 0 0
SMALL
GASTEIGER

@<TRIPOS>ATOM
      1  N        198.8380 -132.2700  145.8610 N.3    39  ASN39      -0.1240
      2  CA       198.7570 -133.7210  146.0350 C.3    39  ASN39       0.1653
      3  C        197.2690 -134.0520  146.1350 C.2    39  ASN39       0.2266
      4  O        196.7280 -134.1890  147.2320 O.2    39  ASN39      -0.2867
      5  CB       199.4540 -134.1610  147.3300 C.3    39  ASN39       0.1155
      6  CG       200.8690 -133.6130  147.4600 C.2    39  ASN39       0.2627
      7  OD1      201.7070 -133.7800  146.5720 O.2    39  ASN39      -0.2716
      8  ND2      201.1410 -132.9630  148.5830 N.am   39  ASN39      -0.0877
      9  N        195.4780 -136.5450  143.8160 N.3    41  ILE41      -0.1231
     10  CA       195.0860 -137.8900  143.4290 C.3    41  ILE41       0.1692
     11  C        196.1000 -138.9530  143.8130 C.2    41  ILE41       0.2592
     12  O        197.3000 -138.8030  143.5960 O.2    41  ILE41      -0.2718
     13  CB       194.8110 -137.9490  141.9260 C.3    41  ILE41       0.0266
     14  CG1      193.7450 -136.9080  141.5790 C.3    41  ILE41       0.0019
     15  CG2      194.3370 -139.3340  141.5390 C.3    41  ILE41       0.0020
     16  CD1      193.5120 -136.7280  140.1050 C.3    41  ILE41       0.0001
     17  N        195.5930 -140.0370  144.3860 N.am   42  GLU42      -0.1966
     18  CA       196.4230 -141.1450  144.8330 C.3    42  GLU42       0.1733
     19  C        196.8000 -142.0830  143.6840 C.2    42  GLU42       0.2616
     20  O        195.9600 -142.8050  143.1600 O.2    42  GLU42      -0.2715
     21  CB       195.6740 -141.9180  145.9230 C.3    42  GLU42       0.0429
     22  CG       196.4510 -143.0460  146.5790 C.3    42  GLU42       0.1163
     23  CD       197.6470 -142.5590  147.3760 C.2    42  GLU42       0.3649
     24  OE1      197.5810 -141.4530  147.9560 O.co2  42  GLU42      -0.2457
     25  OE2      198.6550 -143.2940  147.4380 O.co2  42  GLU42      -0.2457
     26  N        198.0650 -142.0480  143.2860 N.am   43  HIS43      -0.1959
     27  CA       198.5700 -142.9030  142.2180 C.3    43  HIS43       0.1787
     28  C        197.7140 -142.9740  140.9520 C.2    43  HIS43       0.2620
     29  O        197.5130 -144.0510  140.3930 O.2    43  HIS43      -0.2715
     30  CB       198.7750 -144.3150  142.7560 C.3    43  HIS43       0.0785
     31  CG       199.8760 -144.4230  143.7620 C.ar   43  HIS43       0.0821
     32  ND1      201.2050 -144.2670  143.4310 N.ar   43  HIS43      -0.2267
     33  CD2      199.8460 -144.6780  145.0900 C.ar   43  HIS43       0.1154
     34  CE1      201.9460 -144.4230  144.5120 C.ar   43  HIS43       0.1986
     35  NE2      201.1470 -144.6730  145.5340 N.ar   43  HIS43      -0.2212
     36  N        197.2150 -141.8350  140.4940 N.am   44  ASP44      -0.1971
     37  CA       196.4030 -141.8090  139.2810 C.3    44  ASP44       0.1709
     38  C        196.2790 -140.3650  138.7990 C.2    44  ASP44       0.2293
     39  O        196.6620 -139.4300  139.5090 O.2    44  ASP44      -0.2864
     40  CB       195.0130 -142.3990  139.5570 C.3    44  ASP44       0.1436
     41  CG       194.4350 -143.1360  138.3530 C.2    44  ASP44       0.3671
     42  OD1      194.4310 -142.5650  137.2420 O.co2  44  ASP44      -0.2456
     43  OD2      193.9770 -144.2880  138.5210 O.co2  44  ASP44      -0.2456
     44  N        204.8630 -132.5680  138.9360 N.3    80  PRO80      -0.2102
     45  CA       205.3160 -133.5940  137.9900 C.3    80  PRO80       0.1504
     46  C        204.2180 -134.5930  137.6060 C.2    80  PRO80       0.2576
     47  O        204.3020 -135.2450  136.5660 O.2    80  PRO80      -0.2718
     48  CB       206.5080 -134.2430  138.7070 C.3    80  PRO80       0.0282
     49  CG       206.3240 -133.8610  140.1540 C.3    80  PRO80       0.0208
     50  CD       205.7600 -132.4790  140.0980 C.3    80  PRO80       0.0893
     51  N        203.1850 -134.6920  138.4390 N.am   81  SER81      -0.1953
     52  CA       202.0610 -135.5920  138.1830 C.3    81  SER81       0.1924
     53  C        201.2090 -135.0340  137.0460 C.2    81  SER81       0.2314
     54  O        200.3840 -135.7350  136.4630 O.2    81  SER81      -0.2863
     55  CB       201.1780 -135.7080  139.4290 C.3    81  SER81       0.2116
     56  OG       201.9500 -135.7290  140.6200 O.3    81  SER81      -0.2180
     57  N        209.5570 -139.1300  140.8570 N.3   381  PRO381     -0.2116
     58  CA       208.2750 -138.4210  140.9850 C.3   381  PRO381      0.1372
     59  C        207.2720 -138.6870  139.8570 C.2   381  PRO381      0.2244
     60  O        206.0620 -138.5960  140.0610 O.2   381  PRO381     -0.2868
     61  CB       208.6930 -136.9470  141.0790 C.3   381  PRO381      0.0268
     62  CG       210.0550 -136.9190  140.4400 C.3   381  PRO381      0.0207
     63  CD       210.6820 -138.1830  140.9450 C.3   381  PRO381      0.0892
     64  N        205.8470 -142.6420  140.4070 N.3   383  THR383     -0.1203
     65  CA       204.8320 -142.8880  141.4250 C.3   383  THR383      0.1994
     66  C        203.4460 -142.4220  140.9960 C.2   383  THR383      0.2617
     67  O        202.4940 -142.4410  141.7790 O.2   383  THR383     -0.2717
     68  CB       205.1990 -142.2540  142.7920 C.3   383  THR383      0.1784
     69  OG1      205.3200 -140.8330  142.6660 O.3   383  THR383     -0.2211
     70  CG2      206.4940 -142.8390  143.2960 C.3   383  THR383      0.0376
     71  N        203.3320 -142.0000  139.7430 N.am  384  ILE384     -0.1979
     72  CA       202.0390 -141.5860  139.2130 C.3   384  ILE384      0.1595
     73  C        201.2260 -142.8680  139.0200 C.2   384  ILE384      0.2287
     74  O        200.0060 -142.8670  139.1540 O.2   384  ILE384     -0.2864
     75  CB       202.1870 -140.8740  137.8540 C.3   384  ILE384      0.0276
     76  CG1      202.8550 -139.5120  138.0540 C.3   384  ILE384      0.0022
     77  CG2      200.8230 -140.7250  137.1850 C.3   384  ILE384      0.0022
     78  CD1      203.1380 -138.7680  136.7630 C.3   384  ILE384      0.0001
     79  N        204.2240 -147.9240  142.8380 N.3   387  HIS387     -0.1226
     80  CA       204.4610 -147.6680  144.2510 C.3   387  HIS387      0.1752
     81  C        205.9120 -147.2310  144.3740 C.2   387  HIS387      0.2596
     82  O        206.7440 -147.5880  143.5400 O.2   387  HIS387     -0.2718
     83  CB       204.2040 -148.9220  145.0880 C.3   387  HIS387      0.0759
     84  CG       202.7560 -149.1660  145.3810 C.ar  387  HIS387      0.0818
     85  ND1      201.9560 -148.2330  146.0070 N.ar  387  HIS387     -0.2268
     86  CD2      201.9640 -150.2370  145.1390 C.ar  387  HIS387      0.1154
     87  CE1      200.7320 -148.7180  146.1350 C.ar  387  HIS387      0.1986
     88  NE2      200.7110 -149.9320  145.6160 N.ar  387  HIS387     -0.2212
     89  N        206.2140 -146.4570  145.4090 N.am  388  GLU388     -0.1965
     90  CA       207.5670 -145.9500  145.6080 C.3   388  GLU388      0.1733
     91  C        208.6760 -146.9950  145.5910 C.2   388  GLU388      0.2616
     92  O        209.6600 -146.8420  144.8660 O.2   388  GLU388     -0.2715
     93  CB       207.6500 -145.1580  146.9130 C.3   388  GLU388      0.0429
     94  CG       208.9800 -144.4340  147.0950 C.3   388  GLU388      0.1163
     95  CD       209.0140 -143.5930  148.3530 C.2   388  GLU388      0.3649
     96  OE1      208.1710 -142.6770  148.4780 O.co2 388  GLU388     -0.2457
     97  OE2      209.8820 -143.8520  149.2150 O.co2 388  GLU388     -0.2457
     98  N        208.5300 -148.0530  146.3840 N.am  389  LYS389     -0.1977
     99  CA       209.5670 -149.0770  146.4300 C.3   389  LYS389      0.1596
    100  C        209.7960 -149.7240  145.0710 C.2   389  LYS389      0.2287
    101  O        210.9380 -149.9270  144.6600 O.2   389  LYS389     -0.2864
    102  CB       209.2220 -150.1580  147.4510 C.3   389  LYS389      0.0298
    103  CG       210.2820 -151.2460  147.5470 C.3   389  LYS389      0.0038
    104  CD       209.8460 -152.3760  148.4650 C.3   389  LYS389      0.0206
    105  CE       210.8320 -153.5360  148.4100 C.3   389  LYS389      0.1093
    106  NZ       210.4100 -154.6780  149.2750 N.3   389  LYS389     -0.1314
    107  N        196.6210 -138.9720  149.0270 N.3   689  ASN689     -0.1240
    108  CA       196.4000 -137.6660  148.4150 C.3   689  ASN689      0.1653
    109  C        194.9010 -137.4490  148.2760 C.2   689  ASN689      0.2266
    110  O        194.1500 -138.4020  148.1090 O.2   689  ASN689     -0.2867
    111  CB       197.0620 -137.5810  147.0360 C.3   689  ASN689      0.1155
    112  CG       198.5760 -137.7100  147.1010 C.2   689  ASN689      0.2627
    113  OD1      199.2040 -137.3180  148.0840 O.2   689  ASN689     -0.2716
    114  ND2      199.1690 -138.2430  146.0410 N.am  689  ASN689     -0.0877
    115  N        206.6330 -134.6040  150.8150 N.3   900  GLU900     -0.1245
    116  CA       206.9760 -135.9400  150.3380 C.3   900  GLU900      0.1567
    117  C        208.4600 -136.0630  149.9900 C.2   900  GLU900      0.2260
    118  O        208.8210 -136.2260  148.8230 O.2   900  GLU900     -0.2867
    119  CB       206.1400 -136.2870  149.1040 C.3   900  GLU900      0.0388
    120  CG       204.6510 -136.4570  149.3630 C.3   900  GLU900      0.1160
    121  CD       204.3480 -137.6310  150.2810 C.2   900  GLU900      0.3649
    122  OE1      205.1750 -138.5720  150.3400 O.co2 900  GLU900     -0.2457
    123  OE2      203.2770 -137.6180  150.9280 O.co2 900  GLU900     -0.2457
    124  N        210.5230 -138.5400  150.5730 N.3   902  THR902     -0.1203
    125  CA       210.9230 -139.8920  150.1580 C.3   902  THR902      0.1994
    126  C        210.5780 -140.1840  148.7080 C.2   902  THR902      0.2617
    127  O        210.9980 -141.1990  148.1560 O.2   902  THR902     -0.2717
    128  CB       210.2530 -141.0080  151.0220 C.3   902  THR902      0.1784
    129  OG1      208.8440 -141.0470  150.7650 O.3   902  THR902     -0.2211
    130  CG2      210.4760 -140.7530  152.5010 C.3   902  THR902      0.0376
    131  N        209.8160 -139.2900  148.0910 N.am  903  ASN903     -0.1974
    132  CA       209.3990 -139.4750  146.7080 C.3   903  ASN903      0.1688
    133  C        210.5220 -139.2460  145.6980 C.2   903  ASN903      0.2292
    134  O        210.4270 -139.7060  144.5590 O.2   903  ASN903     -0.2864
    135  CB       208.2370 -138.5330  146.3840 C.3   903  ASN903      0.1181
    136  CG       207.4440 -138.9790  145.1680 C.2   903  ASN903      0.2629
    137  OD1      207.9060 -139.8070  144.3860 O.2   903  ASN903     -0.2716
    138  ND2      206.2430 -138.4240  144.9990 N.am  903  ASN903     -0.0877
    139  N        203.8290 -140.5440  152.9690 N.3   929  HIS929     -0.1226
    140  CA       202.9970 -141.7410  152.9110 C.3   929  HIS929      0.1752
    141  C        203.7960 -142.8230  153.6270 C.2   929  HIS929      0.2596
    142  O        203.2510 -143.8340  154.0660 O.2   929  HIS929     -0.2718
    143  CB       202.7670 -142.1860  151.4580 C.3   929  HIS929      0.0759
    144  CG       201.8530 -141.2950  150.6750 C.ar  929  HIS929      0.0818
    145  ND1      201.3800 -141.6360  149.4260 N.ar  929  HIS929     -0.2268
    146  CD2      201.3120 -140.0870  150.9630 C.ar  929  HIS929      0.1154
    147  CE1      200.5840 -140.6810  148.9810 C.ar  929  HIS929      0.1986
    148  NE2      200.5260 -139.7290  149.8940 N.ar  929  HIS929     -0.2212
    149  N        205.0990 -142.5770  153.7340 N.am  930  SER930     -0.1952
    150  CA       206.0400 -143.4960  154.3610 C.3   930  SER930      0.1924
    151  C        206.0470 -143.4310  155.8770 C.2   930  SER930      0.2314
    152  O        206.6060 -142.5080  156.4660 O.2   930  SER930     -0.2863
    153  CB       207.4500 -143.2150  153.8440 C.3   930  SER930      0.2116
    154  OG       208.4110 -143.9470  154.5760 O.3   930  SER930     -0.2180
@<TRIPOS>BOND
     1    54    53    2
     2    47    46    2
     3    78    76    1
     4    53    52    1
     5    77    75    1
     6    42    41   ar
     7    46    45    1
     8    46    51   am
     9    75    76    1
    10    75    72    1
    11    45    48    1
    12    45    44    1
    13    52    51    1
    14    52    55    1
    15    41    43   ar
    16    41    40    1
    17    48    49    1
    18    38    37    1
    19    38    39    2
    20    44    50    1
    21    73    74    2
    22    73    72    1
    23    72    71    1
    24    37    40    1
    25    37    36    1
    26    55    56    1
    27    71    66   am
    28    59    60    2
    29    59    58    1
    30    50    49    1
    31    16    14    1
    32    29    28    2
    33    64    65    1
    34    62    63    1
    35    62    61    1
    36    36    28   am
    37    57    63    1
    38    57    58    1
    39    28    27    1
    40    58    61    1
    41    66    65    1
    42    66    67    2
    43    65    68    1
    44    15    13    1
    45    14    13    1
    46    13    10    1
    47    27    30    1
    48    27    26    1
    49    69    68    1
    50    30    31    1
    51    68    70    1
    52    79    80    1
    53    20    19    2
    54    26    19   am
    55    10    11    1
    56    10     9    1
    57    32    31   ar
    58    32    34   ar
    59    82    81    2
    60    12    11    2
    61    19    18    1
    62    31    33   ar
    63    11    17   am
    64    80    81    1
    65    80    83    1
    66    81    89   am
    67    17    18    1
    68   137   136    2
    69    34    35   ar
    70   134   133    2
    71   101   100    2
    72    18    21    1
    73    92    91    2
    74   138   136   am
    75   100    99    1
    76    83    84    1
    77    33    35   ar
    78    86    84   ar
    79    86    88   ar
    80   136   135    1
    81    84    85   ar
    82    89    90    1
    83    91    90    1
    84    91    98   am
    85    90    93    1
    86    88    87   ar
    87   133   132    1
    88     1     2    1
    89    21    22    1
    90    85    87   ar
    91     2     3    1
    92     2     5    1
    93   114   112   am
    94     3     4    2
    95   135   132    1
    96    98    99    1
    97    99   102    1
    98     7     6    2
    99    22    23    1
   100   132   131    1
   101    93    94    1
   102   111   112    1
   103   111   108    1
   104    94    95    1
   105   112   113    2
   106     5     6    1
   107    23    25   ar
   108    23    24   ar
   109   102   103    1
   110     6     8   am
   111   103   104    1
   112   131   126   am
   113   110   109    2
   114   127   126    2
   115   109   108    1
   116    95    96   ar
   117    95    97   ar
   118   105   104    1
   119   105   106    1
   120   108   107    1
   121   126   125    1
   122   118   117    2
   123   147   145   ar
   124   147   148   ar
   125   119   120    1
   126   119   116    1
   127   120   121    1
   128   145   144   ar
   129   148   146   ar
   130   117   116    1
   131   125   124    1
   132   125   128    1
   133   121   122   ar
   134   121   123   ar
   135   116   115    1
   136   144   146   ar
   137   144   143    1
   138   129   128    1
   139   128   130    1
   140   143   140    1
   141   140   139    1
   142   140   141    1
   143   141   149   am
   144   141   142    2
   145   149   150    1
   146   153   150    1
   147   153   154    1
   148   150   151    1
   149   151   152    2
