@<TRIPOS>MOLECULE
tmp/2iw4B01.pdb
 116 109 0 0 0
SMALL
GASTEIGER

@<TRIPOS>ATOM
      1  N        -49.3770  -94.4140   57.9840 N.3     9  HIS9       -0.1241
      2  CA       -50.3040  -94.6380   56.8980 C.3     9  HIS9        0.1621
      3  C        -51.3730  -95.6880   57.2560 C.2     9  HIS9        0.2264
      4  O        -51.2320  -96.4660   58.2410 O.2     9  HIS9       -0.2867
      5  CB       -49.5570  -94.9970   55.5890 C.3     9  HIS9        0.0745
      6  CG       -48.5460  -96.0890   55.7470 C.ar    9  HIS9        0.0817
      7  ND1      -48.8960  -97.4260   55.8470 N.ar    9  HIS9       -0.2268
      8  CD2      -47.1890  -96.0520   55.7720 C.ar    9  HIS9        0.1154
      9  CE1      -47.7940  -98.1590   55.9360 C.ar    9  HIS9        0.1986
     10  NE2      -46.7530  -97.3510   55.8940 N.ar    9  HIS9       -0.2212
     11  N        -47.5050 -100.4620   58.8030 N.3    13  ASP13      -0.1239
     12  CA       -46.3790 -101.3560   58.9760 C.3    13  ASP13       0.1674
     13  C        -45.6160 -101.0550   60.2750 C.2    13  ASP13       0.2266
     14  O        -45.9810 -100.1580   61.0460 O.2    13  ASP13      -0.2867
     15  CB       -45.4550 -101.3540   57.7600 C.3    13  ASP13       0.1410
     16  CG       -45.1250  -99.9860   57.2510 C.2    13  ASP13       0.3668
     17  OD1      -44.7750  -99.8930   56.0540 O.co2  13  ASP13      -0.2456
     18  OD2      -45.1060  -98.9830   57.9830 O.co2  13  ASP13      -0.2456
     19  N        -44.0320  -91.2250   58.4020 N.3    75  ASP75      -0.1239
     20  CA       -43.9450  -92.3420   57.4580 C.3    75  ASP75       0.1674
     21  C        -44.9640  -92.2690   56.2690 C.2    75  ASP75       0.2266
     22  O        -45.1280  -93.2460   55.5120 O.2    75  ASP75      -0.2867
     23  CB       -44.0220  -93.6670   58.2220 C.3    75  ASP75       0.1410
     24  CG       -43.6840  -94.8640   57.3500 C.2    75  ASP75       0.3668
     25  OD1      -44.4780  -95.8150   57.3200 O.co2  75  ASP75      -0.2456
     26  OD2      -42.6550  -94.8220   56.6540 O.co2  75  ASP75      -0.2456
     27  N        -40.0720  -90.4370   54.7430 N.3    97  HIS97      -0.1226
     28  CA       -39.0510  -90.7550   53.7670 C.3    97  HIS97       0.1752
     29  C        -39.6380  -91.2980   52.4360 C.2    97  HIS97       0.2595
     30  O        -38.9210  -91.9780   51.7080 O.2    97  HIS97      -0.2718
     31  CB       -38.0020  -91.7330   54.3520 C.3    97  HIS97       0.0759
     32  CG       -38.5600  -93.0570   54.7680 C.ar   97  HIS97       0.0818
     33  ND1      -37.8740  -94.2430   54.5650 N.ar   97  HIS97      -0.2268
     34  CD2      -39.7230  -93.3890   55.3930 C.ar   97  HIS97       0.1154
     35  CE1      -38.6090  -95.2460   55.0200 C.ar   97  HIS97       0.1986
     36  NE2      -39.7250  -94.7580   55.5430 N.ar   97  HIS97      -0.2212
     37  N        -40.9170  -91.0270   52.1510 N.am   98  GLN98      -0.1979
     38  CA       -41.5060  -91.3650   50.8450 C.3    98  GLN98       0.1601
     39  C        -41.3510  -90.1870   49.8730 C.2    98  GLN98       0.2287
     40  O        -40.9310  -89.0880   50.2700 O.2    98  GLN98      -0.2864
     41  CB       -43.0120  -91.6850   50.9480 C.3    98  GLN98       0.0394
     42  CG       -43.4970  -92.3590   52.2160 C.3    98  GLN98       0.0908
     43  CD       -42.8360  -93.6920   52.5190 C.2    98  GLN98       0.2608
     44  OE1      -42.6130  -94.5080   51.6180 O.2    98  GLN98      -0.2717
     45  NE2      -42.5450  -93.9380   53.7980 N.am   98  GLN98      -0.0878
     46  N        -38.0800 -102.0130   57.4380 N.3   149  ASP149     -0.1239
     47  CA       -38.0240 -101.2140   56.2290 C.3   149  ASP149      0.1674
     48  C        -36.8320 -101.5880   55.3900 C.2   149  ASP149      0.2266
     49  O        -36.8920 -101.5270   54.1710 O.2   149  ASP149     -0.2867
     50  CB       -37.9560  -99.7230   56.5730 C.3   149  ASP149      0.1410
     51  CG       -39.3260  -99.0790   56.6530 C.2   149  ASP149      0.3668
     52  OD1      -40.3230  -99.7880   56.8360 O.co2 149  ASP149     -0.2456
     53  OD2      -39.4270  -97.8530   56.5430 O.co2 149  ASP149     -0.2456
     54  N        -50.3250 -104.6120   53.2420 N.3   203  ASP203     -0.1239
     55  CA       -49.3270 -103.6320   52.9180 C.3   203  ASP203      0.1674
     56  C        -49.7100 -102.9720   51.5910 C.2   203  ASP203      0.2266
     57  O        -48.8970 -102.8520   50.6860 O.2   203  ASP203     -0.2867
     58  CB       -47.9390 -104.2930   52.9330 C.3   203  ASP203      0.1410
     59  CG       -46.8060 -103.3040   52.7810 C.2   203  ASP203      0.3668
     60  OD1      -47.0590 -102.0680   52.8500 O.co2 203  ASP203     -0.2456
     61  OD2      -45.6530 -103.7670   52.5730 O.co2 203  ASP203     -0.2456
     62  N        -50.8690  -99.6340   49.3650 N.3   205  LYS205     -0.1245
     63  CA       -50.8980  -98.1600   49.3310 C.3   205  LYS205      0.1561
     64  C        -51.4900  -97.6640   48.0260 C.2   205  LYS205      0.2260
     65  O        -51.1650  -98.1970   46.9660 O.2   205  LYS205     -0.2867
     66  CB       -49.5020  -97.5540   49.4810 C.3   205  LYS205      0.0271
     67  CG       -48.9130  -97.7030   50.8630 C.3   205  LYS205      0.0035
     68  CD       -47.5000  -97.1760   50.8830 C.3   205  LYS205      0.0206
     69  CE       -46.9610  -97.2290   52.2610 C.3   205  LYS205      0.1093
     70  NZ       -45.5630  -96.7410   52.2430 N.3   205  LYS205     -0.1314
     71  N        -51.9320  -94.6220   45.1400 N.3   207  PHE207     -0.1241
     72  CA       -51.1640  -93.5430   44.5240 C.3   207  PHE207      0.1605
     73  C        -52.0110  -92.9480   43.3800 C.2   207  PHE207      0.2264
     74  O        -52.9420  -93.5660   42.8860 O.2   207  PHE207     -0.2867
     75  CB       -49.8770  -94.1170   43.9470 C.3   207  PHE207      0.0534
     76  CG       -48.9420  -94.6840   44.9840 C.ar  207  PHE207     -0.0203
     77  CD1      -48.9550  -96.0420   45.2930 C.ar  207  PHE207     -0.0042
     78  CD2      -48.0360  -93.8670   45.6440 C.ar  207  PHE207     -0.0042
     79  CE1      -48.0740  -96.5620   46.2220 C.ar  207  PHE207     -0.0003
     80  CE2      -47.1790  -94.3920   46.6000 C.ar  207  PHE207     -0.0003
     81  CZ       -47.2160  -95.7410   46.8970 C.ar  207  PHE207     -0.0000
     82  N        -47.9190 -104.9190   48.6660 N.3   218  GLN218     -0.1245
     83  CA       -46.7560 -105.7930   48.7420 C.3   218  GLN218      0.1566
     84  C        -46.9510 -106.8700   49.8060 C.2   218  GLN218      0.2260
     85  O        -47.6000 -106.6260   50.8140 O.2   218  GLN218     -0.2867
     86  CB       -45.4950 -104.9680   49.0450 C.3   218  GLN218      0.0367
     87  CG       -44.1580 -105.7380   48.9520 C.3   218  GLN218      0.0905
     88  CD       -42.9410 -104.8200   49.0480 C.2   218  GLN218      0.2608
     89  OE1      -43.0350 -103.7030   49.5600 O.2   218  GLN218     -0.2717
     90  NE2      -41.7830 -105.3020   48.5700 N.am  218  GLN218     -0.0878
     91  N        -38.1950 -102.8760   46.7320 N.3   294  SER294     -0.1202
     92  CA       -38.5730 -101.5830   47.3420 C.3   294  SER294      0.2020
     93  C        -39.6270 -100.8350   46.5350 C.2   294  SER294      0.2619
     94  O        -39.4040 -100.5450   45.3600 O.2   294  SER294     -0.2717
     95  CB       -37.3550 -100.6850   47.4370 C.3   294  SER294      0.2103
     96  OG       -37.8250  -99.3860   47.7570 O.3   294  SER294     -0.2182
     97  N        -40.7690 -100.5300   47.1410 N.am  295  ARG295     -0.1965
     98  CA       -41.7980  -99.8450   46.4220 C.3   295  ARG295      0.1729
     99  C        -41.4090  -98.3810   46.1760 C.2   295  ARG295      0.2616
    100  O        -41.4570  -97.9180   45.0250 O.2   295  ARG295     -0.2715
    101  CB       -43.1440  -99.9630   47.1570 C.3   295  ARG295      0.0348
    102  CG       -44.2730  -99.1280   46.5930 C.3   295  ARG295      0.0492
    103  CD       -45.6390  -99.5640   47.2550 C.3   295  ARG295      0.2205
    104  NE       -45.4620  -99.6640   48.7000 N.pl3 295  ARG295     -0.0865
    105  CZ       -46.1890 -100.3910   49.5290 C.cat 295  ARG295      0.5346
    106  NH1      -47.2460 -101.0880   49.0760 N.pl3 295  ARG295      0.1354
    107  NH2      -45.8600 -100.3840   50.8250 N.pl3 295  ARG295      0.1354
    108  N        -40.9830  -97.6670   47.2250 N.am  296  LYS296     -0.1977
    109  CA       -40.5860  -96.2680   47.0700 C.3   296  LYS296      0.1596
    110  C        -39.4520  -96.0180   46.0470 C.2   296  LYS296      0.2287
    111  O        -39.4800  -94.9960   45.3640 O.2   296  LYS296     -0.2864
    112  CB       -40.2180  -95.6020   48.4170 C.3   296  LYS296      0.0298
    113  CG       -38.8460  -96.0210   49.0070 C.3   296  LYS296      0.0038
    114  CD       -38.4210  -95.2160   50.2710 C.3   296  LYS296      0.0206
    115  CE       -39.5010  -95.2930   51.3390 C.3   296  LYS296      0.1093
    116  NZ       -39.6390  -96.6430   51.9680 N.3   296  LYS296     -0.1314
@<TRIPOS>BOND
     1    74    73    2
     2    73    72    1
     3    75    72    1
     4    75    76    1
     5    72    71    1
     6    76    77   ar
     7    76    78   ar
     8   100    99    2
     9    77    79   ar
    10    94    93    2
    11   111   110    2
    12    78    80   ar
    13   110   109    1
    14    99    98    1
    15    99   108   am
    16    79    81   ar
    17    98    97    1
    18    98   101    1
    19    93    97   am
    20    93    92    1
    21   102   101    1
    22   102   103    1
    23    80    81   ar
    24    91    92    1
    25    65    64    2
    26   109   108    1
    27   109   112    1
    28   103   104    1
    29    92    95    1
    30    95    96    1
    31    64    63    1
    32   112   113    1
    33    90    88   am
    34    82    83    1
    35   104   105    2
    36    83    86    1
    37    83    84    1
    38    87    86    1
    39    87    88    1
    40   113   114    1
    41    88    89    2
    42   106   105    1
    43    63    62    1
    44    63    66    1
    45    66    67    1
    46   105   107    1
    47    84    85    2
    48    39    40    2
    49    39    38    1
    50   114   115    1
    51    57    56    2
    52    38    41    1
    53    38    37    1
    54    67    68    1
    55    68    69    1
    56    41    42    1
    57   115   116    1
    58    56    55    1
    59    44    43    2
    60    30    29    2
    61    37    29   am
    62    42    43    1
    63    70    69    1
    64    29    28    1
    65    43    45   am
    66    61    59   ar
    67    59    60   ar
    68    59    58    1
    69    55    58    1
    70    55    54    1
    71    28    31    1
    72    28    27    1
    73    49    48    2
    74    31    32    1
    75    33    32   ar
    76    33    35   ar
    77    32    34   ar
    78    35    36   ar
    79    48    47    1
    80    34    36   ar
    81    22    21    2
    82     5     6    1
    83     5     2    1
    84     6     8   ar
    85     6     7   ar
    86     8    10   ar
    87     7     9   ar
    88    10     9   ar
    89    17    16   ar
    90    47    50    1
    91    47    46    1
    92    21    20    1
    93    53    51   ar
    94    50    51    1
    95    51    52   ar
    96    26    24   ar
    97     2     3    1
    98     2     1    1
    99    16    15    1
   100    16    18   ar
   101     3     4    2
   102    25    24   ar
   103    24    23    1
   104    20    23    1
   105    20    19    1
   106    15    12    1
   107    11    12    1
   108    12    13    1
   109    13    14    2
