@<TRIPOS>MOLECULE
tmp/2iw4B00.pdb
 118 111 0 0 0
SMALL
GASTEIGER

@<TRIPOS>ATOM
      1  N        -52.2230  -83.6060   70.6660 N.3     4  ILE4       -0.1245
      2  CA       -52.1750  -83.9660   69.2540 C.3     4  ILE4        0.1561
      3  C        -52.1610  -85.5040   69.0850 C.2     4  ILE4        0.2260
      4  O        -51.8460  -86.2260   70.0350 O.2     4  ILE4       -0.2867
      5  CB       -50.9390  -83.3520   68.5780 C.3     4  ILE4        0.0252
      6  CG1      -49.6750  -83.9520   69.1830 C.3     4  ILE4        0.0019
      7  CG2      -50.9250  -81.8230   68.7210 C.3     4  ILE4        0.0019
      8  CD1      -48.4350  -83.3560   68.6820 C.3     4  ILE4        0.0001
      9  N        -42.1210  -91.0490   68.2640 N.3    23  TYR23      -0.1241
     10  CA       -42.2650  -89.5900   68.1860 C.3    23  TYR23       0.1605
     11  C        -43.1970  -89.0540   69.2810 C.2    23  TYR23       0.2264
     12  O        -42.9490  -87.9590   69.8490 O.2    23  TYR23      -0.2867
     13  CB       -42.7160  -89.1160   66.7970 C.3    23  TYR23       0.0534
     14  CG       -42.3670  -87.6410   66.5420 C.ar   23  TYR23      -0.0201
     15  CD1      -41.3650  -86.9890   67.3130 C.ar   23  TYR23      -0.0009
     16  CD2      -43.0040  -86.8990   65.5580 C.ar   23  TYR23      -0.0009
     17  CE1      -41.0280  -85.6530   67.1120 C.ar   23  TYR23       0.0417
     18  CE2      -42.6440  -85.5270   65.3390 C.ar   23  TYR23       0.0417
     19  CZ       -41.6370  -84.9260   66.1150 C.ar   23  TYR23       0.1957
     20  OH       -41.2610  -83.5740   65.9310 O.3    23  TYR23      -0.2866
     21  N        -41.0160  -88.8800   72.3370 N.3    26  LEU26      -0.1231
     22  CA       -40.1180  -87.7520   72.2780 C.3    26  LEU26       0.1693
     23  C        -40.9010  -86.4310   72.5780 C.2    26  LEU26       0.2591
     24  O        -40.4180  -85.5880   73.3510 O.2    26  LEU26      -0.2718
     25  CB       -39.4080  -87.7110   70.8900 C.3    26  LEU26       0.0284
     26  CG       -38.5140  -86.4700   70.6380 C.3    26  LEU26       0.0019
     27  CD1      -37.4620  -86.3490   71.7160 C.3    26  LEU26       0.0001
     28  CD2      -37.8580  -86.4420   69.2490 C.3    26  LEU26       0.0001
     29  N        -42.1170  -86.2710   72.0390 N.am   27  LYS27      -0.1980
     30  CA       -42.9440  -85.0840   72.3550 C.3    27  LYS27       0.1596
     31  C        -43.3250  -84.9780   73.8230 C.2    27  LYS27       0.2287
     32  O        -43.1940  -83.9210   74.4360 O.2    27  LYS27      -0.2864
     33  CB       -44.2110  -85.0400   71.4830 C.3    27  LYS27       0.0298
     34  CG       -43.9470  -84.7690   69.9770 C.3    27  LYS27       0.0038
     35  CD       -43.2600  -83.4360   69.7350 C.3    27  LYS27       0.0206
     36  CE       -43.6020  -82.9030   68.3440 C.3    27  LYS27       0.1093
     37  NZ       -42.8630  -81.6330   68.0530 N.3    27  LYS27      -0.1314
     38  N        -40.5410  -84.1140   76.1950 N.3    30  LEU30      -0.1245
     39  CA       -40.2250  -82.7120   76.1020 C.3    30  LEU30       0.1561
     40  C        -41.3240  -81.8650   76.7360 C.2    30  LEU30       0.2260
     41  O        -41.2310  -80.6490   76.7230 O.2    30  LEU30      -0.2867
     42  CB       -40.0130  -82.2960   74.6490 C.3    30  LEU30       0.0270
     43  CG       -38.7110  -82.9070   74.1160 C.3    30  LEU30       0.0019
     44  CD1      -38.6240  -82.7340   72.6200 C.3    30  LEU30       0.0001
     45  CD2      -37.4820  -82.3510   74.8060 C.3    30  LEU30       0.0001
     46  N        -44.7470  -82.0180   75.9760 N.3    32  PHE32      -0.1241
     47  CA       -45.9250  -81.7750   75.1470 C.3    32  PHE32       0.1605
     48  C        -47.0400  -82.7950   75.4170 C.2    32  PHE32       0.2264
     49  O        -47.0060  -83.4470   76.4390 O.2    32  PHE32      -0.2867
     50  CB       -45.5130  -81.6140   73.6730 C.3    32  PHE32       0.0534
     51  CG       -44.5440  -80.4880   73.5070 C.ar   32  PHE32      -0.0203
     52  CD1      -43.1780  -80.7280   73.4540 C.ar   32  PHE32      -0.0042
     53  CD2      -45.0020  -79.1740   73.5420 C.ar   32  PHE32      -0.0042
     54  CE1      -42.2730  -79.6660   73.4080 C.ar   32  PHE32      -0.0003
     55  CE2      -44.1360  -78.1170   73.4630 C.ar   32  PHE32      -0.0003
     56  CZ       -42.7570  -78.3530   73.3980 C.ar   32  PHE32      -0.0000
     57  N        -49.7670  -85.0520   63.6890 N.3    72  ILE72      -0.1245
     58  CA       -48.4570  -85.2430   63.0500 C.3    72  ILE72       0.1561
     59  C        -48.4260  -86.5350   62.2510 C.2    72  ILE72       0.2260
     60  O        -48.8500  -87.5870   62.7570 O.2    72  ILE72      -0.2867
     61  CB       -47.2970  -85.2060   64.0910 C.3    72  ILE72       0.0252
     62  CG1      -47.1840  -83.7960   64.6760 C.3    72  ILE72       0.0019
     63  CG2      -45.9810  -85.7230   63.5060 C.3    72  ILE72       0.0019
     64  CD1      -46.2450  -83.7560   65.8710 C.3    72  ILE72       0.0001
     65  N        -49.5670  -80.4390   61.5390 N.3    92  LEU92      -0.1231
     66  CA       -48.5300  -79.6140   62.1440 C.3    92  LEU92       0.1693
     67  C        -47.1180  -79.9880   61.6980 C.2    92  LEU92       0.2591
     68  O        -46.2590  -79.1340   61.5790 O.2    92  LEU92      -0.2718
     69  CB       -48.6010  -79.7720   63.6890 C.3    92  LEU92       0.0284
     70  CG       -49.8910  -79.3080   64.3580 C.3    92  LEU92       0.0019
     71  CD1      -49.8790  -79.6930   65.8310 C.3    92  LEU92       0.0001
     72  CD2      -50.0740  -77.7910   64.2090 C.3    92  LEU92       0.0001
     73  N        -46.8460  -81.2740   61.5670 N.am   93  GLU93      -0.1979
     74  CA       -45.5290  -81.7420   61.1480 C.3    93  GLU93       0.1602
     75  C        -45.6620  -83.0320   60.3550 C.2    93  GLU93       0.2287
     76  O        -46.6620  -83.7480   60.4710 O.2    93  GLU93      -0.2864
     77  CB       -44.5630  -82.0220   62.3170 C.3    93  GLU93       0.0415
     78  CG       -44.7010  -81.1480   63.5220 C.3    93  GLU93       0.1163
     79  CD       -43.6720  -81.4760   64.5740 C.2    93  GLU93       0.3649
     80  OE1      -42.8390  -82.3920   64.3280 O.co2  93  GLU93      -0.2457
     81  OE2      -43.7230  -80.8200   65.6420 O.co2  93  GLU93      -0.2457
     82  N        -43.5920  -77.8980   59.9110 N.3   110  TYR110     -0.1241
     83  CA       -42.3100  -78.5620   60.0540 C.3   110  TYR110      0.1605
     84  C        -42.4270  -79.8150   59.2050 C.2   110  TYR110      0.2264
     85  O        -43.1140  -80.7510   59.5720 O.2   110  TYR110     -0.2867
     86  CB       -42.0680  -78.8950   61.5310 C.3   110  TYR110      0.0534
     87  CG       -40.7160  -79.4600   61.8680 C.ar  110  TYR110     -0.0201
     88  CD1      -39.6300  -78.6160   62.1670 C.ar  110  TYR110     -0.0009
     89  CD2      -40.5230  -80.8450   61.9400 C.ar  110  TYR110     -0.0009
     90  CE1      -38.3730  -79.1570   62.5130 C.ar  110  TYR110      0.0417
     91  CE2      -39.2890  -81.3920   62.2710 C.ar  110  TYR110      0.0417
     92  CZ       -38.2190  -80.5420   62.5460 C.ar  110  TYR110      0.1957
     93  OH       -37.0200  -81.0990   62.8640 O.3   110  TYR110     -0.2866
     94  N        -33.4550  -86.9200   65.9190 N.3   126  MET126     -0.1245
     95  CA       -34.2510  -85.9630   66.6420 C.3   126  MET126      0.1570
     96  C        -34.1870  -86.1270   68.1820 C.2   126  MET126      0.2261
     97  O        -34.2150  -85.1240   68.9120 O.2   126  MET126     -0.2867
     98  CB       -35.7110  -85.9840   66.1260 C.3   126  MET126      0.0387
     99  CG       -35.7810  -85.4640   64.6420 C.3   126  MET126      0.0595
    100  SD       -37.4220  -85.6800   63.9360 S.3   126  MET126     -0.1393
    101  CE       -38.2930  -84.5160   64.9260 C.3   126  MET126      0.0692
    102  N        -30.8420  -84.5020   68.9940 N.3   129  GLU129     -0.1231
    103  CA       -30.8830  -83.0390   68.8190 C.3   129  GLU129      0.1699
    104  C        -31.5950  -82.4350   70.0060 C.2   129  GLU129      0.2592
    105  O        -31.3410  -81.2830   70.3730 O.2   129  GLU129     -0.2718
    106  CB       -31.6610  -82.6830   67.5510 C.3   129  GLU129      0.0402
    107  CG       -30.8630  -82.7690   66.2510 C.3   129  GLU129      0.1161
    108  CD       -31.7910  -82.9120   65.0350 C.2   129  GLU129      0.3649
    109  OE1      -33.0130  -82.7200   65.2130 O.co2 129  GLU129     -0.2457
    110  OE2      -31.3080  -83.2320   63.9240 O.co2 129  GLU129     -0.2457
    111  N        -32.4620  -83.2320   70.6490 N.am  130  ASN130     -0.1974
    112  CA       -33.2820  -82.6890   71.7570 C.3   130  ASN130      0.1688
    113  C        -32.8140  -83.1190   73.1330 C.2   130  ASN130      0.2292
    114  O        -33.3860  -82.6900   74.1350 O.2   130  ASN130     -0.2864
    115  CB       -34.7710  -82.9920   71.5180 C.3   130  ASN130      0.1181
    116  CG       -35.3720  -82.1010   70.4020 C.2   130  ASN130      0.2629
    117  OD1      -35.6920  -80.9290   70.6300 O.2   130  ASN130     -0.2716
    118  ND2      -35.5220  -82.6560   69.2070 N.am  130  ASN130     -0.0877
@<TRIPOS>BOND
     1    84    85    2
     2    84    83    1
     3    82    83    1
     4    83    86    1
     5    75    76    2
     6    75    74    1
     7    74    73    1
     8    74    77    1
     9    86    87    1
    10    65    66    1
    11    73    67   am
    12    68    67    2
    13    67    66    1
    14    87    89   ar
    15    87    88   ar
    16    89    91   ar
    17    66    69    1
    18    88    90   ar
    19    59    60    2
    20    59    58    1
    21    91    92   ar
    22    77    78    1
    23    90    92   ar
    24    92    93    1
    25    58    57    1
    26    58    61    1
    27    63    61    1
    28    78    79    1
    29    69    70    1
    30   110   108   ar
    31   100    99    1
    32   100   101    1
    33    61    62    1
    34    72    70    1
    35    80    79   ar
    36    70    71    1
    37    79    81   ar
    38    99    98    1
    39    62    64    1
    40   108   109   ar
    41   108   107    1
    42    18    16   ar
    43    18    19   ar
    44    16    14   ar
    45    94    95    1
    46    20    19    1
    47    19    17   ar
    48    98    95    1
    49   107   106    1
    50    14    13    1
    51    14    15   ar
    52    95    96    1
    53    13    10    1
    54    17    15   ar
    55   106   103    1
    56    37    36    1
    57    96    97    2
    58    10     9    1
    59    10    11    1
    60    36    35    1
    61     5     7    1
    62     5     6    1
    63     5     2    1
    64     8     6    1
    65   103   102    1
    66   103   104    1
    67     3     2    1
    68     3     4    2
    69   118   116   am
    70    28    26    1
    71     2     1    1
    72    11    12    2
    73    35    34    1
    74    34    33    1
    75   104   105    2
    76   104   111   am
    77   116   117    2
    78   116   115    1
    79    26    25    1
    80    26    27    1
    81   111   112    1
    82    25    22    1
    83    33    30    1
    84   115   112    1
    85   112   113    1
    86    29    30    1
    87    29    23   am
    88    22    21    1
    89    22    23    1
    90    30    31    1
    91    23    24    2
    92    44    43    1
    93   113   114    2
    94    56    54   ar
    95    56    55   ar
    96    54    52   ar
    97    52    51   ar
    98    55    53   ar
    99    51    53   ar
   100    51    50    1
   101    50    47    1
   102    31    32    2
   103    43    42    1
   104    43    45    1
   105    42    39    1
   106    47    48    1
   107    47    46    1
   108    48    49    2
   109    39    38    1
   110    39    40    1
   111    41    40    2
