@<TRIPOS>MOLECULE
tmp/2iw6A00.pdb
 181 172 0 0 0
SMALL
GASTEIGER

@<TRIPOS>ATOM
      1  N          1.8900   47.0930   45.5540 N.3    11  ILE11      -0.1231
      2  CA         2.0130   45.9920   46.4940 C.3    11  ILE11       0.1692
      3  C          0.8590   46.0400   47.5020 C.2    11  ILE11       0.2593
      4  O          0.2790   45.0030   47.8040 O.2    11  ILE11      -0.2718
      5  CB         3.4190   45.9850   47.2280 C.3    11  ILE11       0.0266
      6  CG1        4.5390   45.6180   46.2710 C.3    11  ILE11       0.0019
      7  CG2        3.4690   44.9790   48.3840 C.3    11  ILE11       0.0020
      8  CD1        5.9100   45.9200   46.8340 C.3    11  ILE11       0.0001
      9  N          0.5420   47.2350   48.0100 N.am   12  GLY12      -0.1942
     10  CA        -0.4690   47.4140   49.0470 C.3    12  GLY12       0.2014
     11  C         -0.3010   48.7000   49.8440 C.2    12  GLY12       0.2639
     12  O          0.0960   49.7260   49.3010 O.2    12  GLY12      -0.2714
     13  N         -0.6130   48.6470   51.1390 N.am   13  GLU13      -0.1963
     14  CA        -0.5920   49.8460   52.0130 C.3    13  GLU13       0.1733
     15  C          0.0180   49.5410   53.3830 C.2    13  GLU13       0.2616
     16  O         -0.3090   48.5050   54.0060 O.2    13  GLU13      -0.2715
     17  CB        -1.9960   50.4690   52.1260 C.3    13  GLU13       0.0429
     18  CG        -2.2740   51.4660   51.0070 C.3    13  GLU13       0.1163
     19  CD        -3.6310   51.2820   50.2730 C.2    13  GLU13       0.3649
     20  OE1       -4.1490   50.1290   50.1660 O.co2  13  GLU13      -0.2457
     21  OE2       -4.1530   52.3170   49.7660 O.co2  13  GLU13      -0.2457
     22  N          0.9300   50.4080   53.8360 N.am   14  GLY14      -0.1955
     23  CA         1.8440   50.0420   54.9520 C.3    14  GLY14       0.1869
     24  C          1.2940   50.3770   56.3360 C.2    14  GLY14       0.2309
     25  O          0.0770   50.2570   56.5820 O.2    14  GLY14      -0.2863
     26  N          2.8400   51.4670   48.8120 N.3    19  VAL19      -0.1245
     27  CA         3.9990   50.6760   48.3640 C.3    19  VAL19       0.1561
     28  C          3.8620   50.0550   46.9620 C.2    19  VAL19       0.2260
     29  O          2.9450   49.2850   46.7000 O.2    19  VAL19      -0.2867
     30  CB         4.3810   49.5940   49.4230 C.3    19  VAL19       0.0252
     31  CG1        5.6550   48.8400   49.0170 C.3    19  VAL19       0.0019
     32  CG2        4.5940   50.2400   50.8010 C.3    19  VAL19       0.0019
     33  N         10.9250   47.8770   46.5040 N.3    32  ALA32      -0.1245
     34  CA         9.6580   48.3940   46.9990 C.3    32  ALA32       0.1562
     35  C          9.8410   49.8980   47.3200 C.2    32  ALA32       0.2260
     36  O         10.7960   50.2990   47.9880 O.2    32  ALA32      -0.2867
     37  CB         9.1960   47.6040   48.2010 C.3    32  ALA32       0.0290
     38  N          8.0140   52.9990   49.0720 N.3    34  LYS34      -0.1245
     39  CA         7.0130   53.6160   49.9230 C.3    34  LYS34       0.1561
     40  C          6.9690   55.1010   49.6020 C.2    34  LYS34       0.2260
     41  O          7.9360   55.8230   49.8370 O.2    34  LYS34      -0.2867
     42  CB         7.4060   53.4160   51.3830 C.3    34  LYS34       0.0271
     43  CG         6.2990   53.4630   52.4190 C.3    34  LYS34       0.0035
     44  CD         6.8630   52.6770   53.6420 C.3    34  LYS34       0.0206
     45  CE         5.8430   52.4040   54.7670 C.3    34  LYS34       0.1093
     46  NZ         6.3460   51.2990   55.6770 N.3    34  LYS34      -0.1314
     47  N         11.1230   55.4380   61.3290 N.3    49  GLU49      -0.1245
     48  CA        11.4250   54.3340   60.4040 C.3    49  GLU49       0.1567
     49  C         12.7960   54.4970   59.7110 C.2    49  GLU49       0.2260
     50  O         13.5680   53.5510   59.6380 O.2    49  GLU49      -0.2867
     51  CB        10.3340   54.1290   59.3290 C.3    49  GLU49       0.0388
     52  CG        10.6950   52.8850   58.4850 C.3    49  GLU49       0.1160
     53  CD         9.5800   52.2790   57.6640 C.2    49  GLU49       0.3649
     54  OE1        8.7520   53.0010   57.1170 O.co2  49  GLU49      -0.2457
     55  OE2        9.5390   51.0320   57.5650 O.co2  49  GLU49      -0.2457
     56  N         14.8690   43.9720   56.6030 N.3    62  VAL62      -0.1245
     57  CA        14.7310   44.5950   55.2890 C.3    62  VAL62       0.1561
     58  C         15.7250   45.7810   55.1660 C.2    62  VAL62       0.2260
     59  O         15.8710   46.5620   56.1090 O.2    62  VAL62      -0.2867
     60  CB        13.2650   45.0840   55.0390 C.3    62  VAL62       0.0252
     61  CG1       12.9080   46.2680   55.9710 C.3    62  VAL62       0.0019
     62  CG2       13.0350   45.4530   53.5880 C.3    62  VAL62       0.0019
     63  N         13.1760   50.4540   49.3230 N.3    78  PHE78      -0.1227
     64  CA        13.5300   49.2340   50.0080 C.3    78  PHE78       0.1736
     65  C         13.9160   48.2190   48.9880 C.2    78  PHE78       0.2595
     66  O         13.4590   48.2440   47.8600 O.2    78  PHE78      -0.2718
     67  CB        12.3490   48.6670   50.7940 C.3    78  PHE78       0.0547
     68  CG        11.8670   49.5550   51.8830 C.ar   78  PHE78      -0.0202
     69  CD1       10.8190   50.4560   51.6440 C.ar   78  PHE78      -0.0042
     70  CD2       12.4410   49.4870   53.1540 C.ar   78  PHE78      -0.0042
     71  CE1       10.3690   51.2830   52.6530 C.ar   78  PHE78      -0.0003
     72  CE2       11.9840   50.3060   54.1760 C.ar   78  PHE78      -0.0003
     73  CZ        10.9400   51.2040   53.9180 C.ar   78  PHE78      -0.0000
     74  N         14.7430   47.2860   49.3970 N.am   79  GLU79      -0.1965
     75  CA        14.9220   46.0880   48.5880 C.3    79  GLU79       0.1733
     76  C         13.5680   45.3350   48.5460 C.2    79  GLU79       0.2616
     77  O         12.8600   45.2920   49.5480 O.2    79  GLU79      -0.2715
     78  CB        15.9990   45.2180   49.2430 C.3    79  GLU79       0.0429
     79  CG        15.4700   44.5960   50.5270 C.3    79  GLU79       0.1163
     80  CD        16.3600   43.5200   51.1080 C.2    79  GLU79       0.3649
     81  OE1       16.9790   42.7820   50.3360 O.co2  79  GLU79      -0.2457
     82  OE2       16.4280   43.4260   52.3490 O.co2  79  GLU79      -0.2457
     83  N         13.2390   44.7350   47.4000 N.am   80  PHE80      -0.1960
     84  CA        11.9860   43.9650   47.1950 C.3    80  PHE80       0.1771
     85  C         12.1580   42.4830   47.5390 C.2    80  PHE80       0.2619
     86  O         13.0880   41.8340   47.0260 O.2    80  PHE80      -0.2715
     87  CB        11.5090   44.0960   45.7340 C.3    80  PHE80       0.0574
     88  CG        10.2590   43.3220   45.4140 C.ar   80  PHE80      -0.0200
     89  CD1        9.0090   43.8430   45.7150 C.ar   80  PHE80      -0.0042
     90  CD2       10.3320   42.0670   44.7950 C.ar   80  PHE80      -0.0042
     91  CE1        7.8550   43.1220   45.4350 C.ar   80  PHE80      -0.0003
     92  CE2        9.1790   41.3310   44.5200 C.ar   80  PHE80      -0.0003
     93  CZ         7.9400   41.8640   44.8390 C.ar   80  PHE80      -0.0000
     94  N         11.2870   41.9740   48.4170 N.am   81  LEU81      -0.1963
     95  CA        11.1810   40.5450   48.7110 C.3    81  LEU81       0.1728
     96  C          9.8870   40.0290   48.0900 C.2    81  LEU81       0.2616
     97  O          8.9230   40.7780   47.9800 O.2    81  LEU81      -0.2715
     98  CB        11.2720   40.2550   50.2300 C.3    81  LEU81       0.0311
     99  CG        12.7410   40.4050   50.7290 C.3    81  LEU81       0.0022
    100  CD1       13.0080   41.7810   51.3990 C.3    81  LEU81       0.0001
    101  CD2       13.1440   39.2800   51.6280 C.3    81  LEU81       0.0001
    102  N          9.8870   38.7760   47.6460 N.am   82  HIS82      -0.1959
    103  CA         8.7790   38.2650   46.8350 C.3    82  HIS82       0.1787
    104  C          7.3780   38.1870   47.4600 C.2    82  HIS82       0.2620
    105  O          6.4020   38.4350   46.7810 O.2    82  HIS82      -0.2715
    106  CB         9.1840   37.0710   45.9610 C.3    82  HIS82       0.0785
    107  CG         8.8080   35.7180   46.4820 C.ar   82  HIS82       0.0821
    108  ND1        9.6260   34.9860   47.3190 N.ar   82  HIS82      -0.2267
    109  CD2        7.7690   34.9000   46.1710 C.ar   82  HIS82       0.1154
    110  CE1        9.0810   33.8010   47.5550 C.ar   82  HIS82       0.1986
    111  NE2        7.9530   33.7220   46.8670 N.ar   82  HIS82      -0.2212
    112  N          7.2840   37.8610   48.7390 N.am   83  GLN83      -0.1963
    113  CA         6.0150   37.9200   49.4430 C.3    83  GLN83       0.1733
    114  C          6.2140   38.1120   50.9450 C.2    83  GLN83       0.2616
    115  O          7.3150   38.2610   51.4220 O.2    83  GLN83      -0.2715
    116  CB         5.0640   36.7320   49.0960 C.3    83  GLN83       0.0408
    117  CG         5.7110   35.3640   49.0090 C.3    83  GLN83       0.0908
    118  CD         4.7050   34.2050   48.8230 C.2    83  GLN83       0.2608
    119  OE1        3.5130   34.4150   48.7610 O.2    83  GLN83      -0.2717
    120  NE2        5.2140   32.9690   48.7280 N.am   83  GLN83      -0.0878
    121  N          5.1150   38.1750   51.6700 N.am   84  ASP84      -0.1971
    122  CA         5.1240   38.1340   53.1190 C.3    84  ASP84       0.1709
    123  C          4.7670   36.7310   53.5850 C.2    84  ASP84       0.2293
    124  O          4.3370   35.9160   52.7950 O.2    84  ASP84      -0.2864
    125  CB         4.1640   39.1630   53.6960 C.3    84  ASP84       0.1436
    126  CG         2.7410   38.9360   53.2690 C.2    84  ASP84       0.3671
    127  OD1        1.9180   38.6900   54.1430 O.co2  84  ASP84      -0.2456
    128  OD2        2.4380   39.0130   52.0690 O.co2  84  ASP84      -0.2456
    129  N          0.7620   35.5320   53.1460 N.3    87  THR87      -0.1218
    130  CA         0.5200   34.9540   51.8220 C.3    87  THR87       0.1862
    131  C          1.1590   33.5660   51.6630 C.2    87  THR87       0.2287
    132  O          0.5490   32.6600   51.0870 O.2    87  THR87      -0.2866
    133  CB         1.0460   35.8880   50.7160 C.3    87  THR87       0.1770
    134  OG1        0.5390   37.2130   50.9170 O.3    87  THR87      -0.2211
    135  CG2        0.6240   35.4090   49.3520 C.3    87  THR87       0.0375
    136  N         -1.1470   30.9780   53.8710 N.3    90  ASP90      -0.1239
    137  CA        -2.3720   30.7760   53.1170 C.3    90  ASP90       0.1674
    138  C         -2.1560   29.8110   51.9390 C.2    90  ASP90       0.2266
    139  O         -2.9760   28.9410   51.6990 O.2    90  ASP90      -0.2867
    140  CB        -2.8820   32.1230   52.5830 C.3    90  ASP90       0.1410
    141  CG        -3.4050   33.0700   53.6930 C.2    90  ASP90       0.3668
    142  OD1       -3.5670   32.6510   54.8670 O.co2  90  ASP90      -0.2456
    143  OD2       -3.6580   34.2710   53.3740 O.co2  90  ASP90      -0.2456
    144  N          2.1920   39.4070   58.0880 N.3   129  GLN129     -0.1231
    145  CA         2.1270   40.4590   57.0790 C.3   129  GLN129      0.1698
    146  C          3.3850   41.3570   57.0170 C.2   129  GLN129      0.2592
    147  O          3.6880   41.9070   55.9740 O.2   129  GLN129     -0.2718
    148  CB         0.9200   41.3390   57.3460 C.3   129  GLN129      0.0381
    149  CG        -0.4140   40.5910   57.2400 C.3   129  GLN129      0.0905
    150  CD        -0.9330   39.9100   58.5310 C.2   129  GLN129      0.2608
    151  OE1       -0.2440   39.7490   59.5160 O.2   129  GLN129     -0.2717
    152  NE2       -2.1740   39.4850   58.4760 N.am  129  GLN129     -0.0878
    153  N          4.0900   41.5030   58.1370 N.am  130  ASN130     -0.1974
    154  CA         5.3390   42.3120   58.2240 C.3   130  ASN130      0.1688
    155  C          6.6280   41.5090   58.0850 C.2   130  ASN130      0.2292
    156  O          7.7140   42.0350   58.2660 O.2   130  ASN130     -0.2864
    157  CB         5.3780   43.1190   59.5310 C.3   130  ASN130      0.1181
    158  CG         4.3740   44.2960   59.5310 C.2   130  ASN130      0.2629
    159  OD1        3.9720   44.7690   58.4770 O.2   130  ASN130     -0.2716
    160  ND2        3.9900   44.7710   60.7210 N.am  130  ASN130     -0.0877
    161  N          8.9270   39.2160   55.6830 N.3   132  LEU132     -0.1245
    162  CA         9.0550   39.0330   54.2190 C.3   132  LEU132      0.1561
    163  C         10.0240   37.9260   53.7970 C.2   132  LEU132      0.2260
    164  O         11.0610   37.7420   54.4030 O.2   132  LEU132     -0.2867
    165  CB         9.4140   40.3400   53.5170 C.3   132  LEU132      0.0270
    166  CG         8.6260   41.6140   53.8810 C.3   132  LEU132      0.0019
    167  CD1        9.2880   42.7770   53.2110 C.3   132  LEU132      0.0001
    168  CD2        7.1070   41.5990   53.5310 C.3   132  LEU132      0.0001
    169  N         10.2220   43.5070   58.6000 N.3   142  ALA142     -0.1231
    170  CA         9.9030   44.7330   57.8510 C.3   142  ALA142      0.1694
    171  C          8.8760   45.5830   58.5830 C.2   142  ALA142      0.2592
    172  O          8.4450   45.2500   59.6920 O.2   142  ALA142     -0.2718
    173  CB         9.4630   44.4200   56.4610 C.3   142  ALA142      0.0304
    174  N          8.5240   46.7100   57.9810 N.am  143  ASP143     -0.1974
    175  CA         7.6470   47.7160   58.5840 C.3   143  ASP143      0.1709
    176  C          8.0720   48.1900   59.9870 C.2   143  ASP143      0.2293
    177  O          7.5280   47.7860   61.0250 O.2   143  ASP143     -0.2864
    178  CB         6.1560   47.3350   58.4880 C.3   143  ASP143      0.1436
    179  CG         5.2360   48.5520   58.5560 C.2   143  ASP143      0.3671
    180  OD1        5.7330   49.7190   58.6150 O.co2 143  ASP143     -0.2456
    181  OD2        3.9860   48.3440   58.5360 O.co2 143  ASP143     -0.2456
@<TRIPOS>BOND
     1    92    90   ar
     2    92    93   ar
     3    90    88   ar
     4    93    91   ar
     5    88    89   ar
     6    88    87    1
     7    91    89   ar
     8     1     2    1
     9    87    84    1
    10   106   107    1
    11   106   103    1
    12   109   107   ar
    13   109   111   ar
    14     6     8    1
    15     6     5    1
    16   107   108   ar
    17     2     5    1
    18     2     3    1
    19    33    34    1
    20    29    28    2
    21   105   104    2
    22   103   104    1
    23   103   102    1
    24   111   110   ar
    25    28    27    1
    26    34    35    1
    27    34    37    1
    28    86    85    2
    29    84    83    1
    30    84    85    1
    31     5     7    1
    32   108   110   ar
    33    35    36    2
    34    83    76   am
    35   104   112   am
    36     3     4    2
    37     3     9   am
    38    85    94   am
    39   102    96   am
    40    66    65    2
    41    97    96    2
    42     9    10    1
    43    96    95    1
    44    27    26    1
    45    27    30    1
    46    94    95    1
    47    76    75    1
    48    76    77    2
    49    75    78    1
    50    75    74    1
    51    95    98    1
    52   120   118   am
    53   112   113    1
    54   119   118    2
    55   118   117    1
    56    65    74   am
    57    65    64    1
    58   117   116    1
    59    31    30    1
    60    10    11    1
    61    38    39    1
    62   116   113    1
    63    78    79    1
    64    12    11    2
    65    63    64    1
    66   135   133    1
    67    30    32    1
    68   113   114    1
    69    40    41    2
    70    40    39    1
    71    21    19   ar
    72    11    13   am
    73    39    42    1
    74    64    67    1
    75    20    19   ar
    76    98    99    1
    77    19    18    1
    78    81    80   ar
    79    79    80    1
    80   133   134    1
    81   133   130    1
    82    99   100    1
    83    99   101    1
    84    67    68    1
    85   114   115    2
    86   114   121   am
    87    18    17    1
    88   132   131    2
    89    80    82   ar
    90    13    14    1
    91    42    43    1
    92    69    68   ar
    93    69    71   ar
    94   131   130    1
    95   121   122    1
    96   139   138    2
    97   130   129    1
    98    68    70   ar
    99   138   137    1
   100    14    17    1
   101    14    15    1
   102   128   126   ar
   103    43    44    1
   104   140   137    1
   105   140   141    1
   106    71    73   ar
   107   124   123    2
   108   137   136    1
   109   122   123    1
   110   122   125    1
   111    70    72   ar
   112   167   166    1
   113   126   125    1
   114   126   127   ar
   115   143   141   ar
   116    15    22   am
   117    15    16    2
   118   165   166    1
   119   165   162    1
   120   168   166    1
   121    62    60    1
   122    44    45    1
   123   141   142   ar
   124   163   162    1
   125   163   164    2
   126    22    23    1
   127    73    72   ar
   128   162   161    1
   129    45    46    1
   130    23    24    1
   131    60    57    1
   132    60    61    1
   133    58    57    1
   134    58    59    2
   135    57    56    1
   136   147   146    2
   137    24    25    2
   138   173   170    1
   139   146   145    1
   140   146   153   am
   141   145   148    1
   142   145   144    1
   143    54    53   ar
   144   149   148    1
   145   149   150    1
   146    55    53   ar
   147    53    52    1
   148   170   171    1
   149   170   169    1
   150   174   171   am
   151   174   175    1
   152   155   154    1
   153   155   156    2
   154   153   154    1
   155   154   157    1
   156   152   150   am
   157   159   158    2
   158    52    51    1
   159   178   179    1
   160   178   175    1
   161   150   151    2
   162   181   179   ar
   163   179   180   ar
   164   171   172    2
   165   175   176    1
   166    51    48    1
   167   158   157    1
   168   158   160   am
   169    50    49    2
   170    49    48    1
   171   176   177    2
   172    48    47    1
