@<TRIPOS>MOLECULE
tmp/2iw8A00.pdb
 171 162 0 0 0
SMALL
GASTEIGER

@<TRIPOS>ATOM
      1  N          2.3080   47.3460   46.1050 N.3    11  ILE11      -0.1231
      2  CA         2.3720   46.1880   46.9870 C.3    11  ILE11       0.1696
      3  C          1.3250   46.2990   48.1130 C.2    11  ILE11       0.2632
      4  O          0.6110   45.3520   48.3720 O.2    11  ILE11      -0.2714
      5  CB         3.7900   45.9840   47.6230 C.3    11  ILE11       0.0266
      6  CG1        4.8680   45.7730   46.5540 C.3    11  ILE11       0.0019
      7  CG2        3.7570   44.8680   48.6740 C.3    11  ILE11       0.0020
      8  CD1        6.3060   45.7150   47.1150 C.3    11  ILE11       0.0001
      9  N          1.2750   47.4390   48.7990 N.am   12  GLY12      -0.1718
     10  CA         0.3610   47.6320   49.9180 C.2    12  GLY12       0.1480
     11  C          0.6060   48.8770   50.7620 C.2    12  GLY12       0.2820
     12  O          1.4950   49.7070   50.4750 O.2    12  GLY12      -0.2669
     13  N         -0.1930   48.9920   51.8210 N.am   13  GLU13      -0.1929
     14  CA        -0.0880   50.0940   52.7860 C.3    13  GLU13       0.1736
     15  C          0.1400   49.5150   54.1520 C.2    13  GLU13       0.2617
     16  O         -0.6470   48.7020   54.6110 O.2    13  GLU13      -0.2715
     17  CB        -1.3790   50.9160   52.7970 C.3    13  GLU13       0.0429
     18  CG        -1.5410   51.7330   51.5630 C.3    13  GLU13       0.1163
     19  CD        -2.9010   52.3750   51.4420 C.2    13  GLU13       0.3649
     20  OE1       -3.5010   52.7220   52.4920 O.co2  13  GLU13      -0.2457
     21  OE2       -3.3560   52.5460   50.2750 O.co2  13  GLU13      -0.2457
     22  N          1.2200   49.9140   54.8120 N.am   14  GLY14      -0.1955
     23  CA         1.4350   49.4700   56.1630 C.3    14  GLY14       0.1869
     24  C          1.0320   50.5480   57.1430 C.2    14  GLY14       0.2309
     25  O         -0.0010   51.1930   56.9700 O.2    14  GLY14      -0.2863
     26  N          3.5330   51.4310   49.7500 N.3    19  VAL19      -0.1245
     27  CA         4.6740   50.7330   49.1560 C.3    19  VAL19       0.1561
     28  C          4.3690   50.2410   47.7460 C.2    19  VAL19       0.2260
     29  O          3.3160   49.6490   47.4860 O.2    19  VAL19      -0.2867
     30  CB         5.2130   49.5650   50.0490 C.3    19  VAL19       0.0252
     31  CG1        6.4030   48.8850   49.3810 C.3    19  VAL19       0.0019
     32  CG2        5.5920   50.0850   51.4700 C.3    19  VAL19       0.0019
     33  N         11.6390   48.1980   46.6190 N.3    32  ALA32      -0.1245
     34  CA        10.3540   48.6080   47.2210 C.3    32  ALA32       0.1562
     35  C         10.4320   50.1050   47.5680 C.2    32  ALA32       0.2260
     36  O         11.3540   50.5340   48.2770 O.2    32  ALA32      -0.2867
     37  CB        10.0440   47.7610   48.4620 C.3    32  ALA32       0.0290
     38  N          8.6660   53.1650   49.3920 N.3    34  LYS34      -0.1245
     39  CA         7.6720   53.6680   50.3340 C.3    34  LYS34       0.1561
     40  C          7.4390   55.1500   50.0590 C.2    34  LYS34       0.2260
     41  O          8.3310   55.9620   50.2290 O.2    34  LYS34      -0.2867
     42  CB         8.1410   53.4650   51.7510 C.3    34  LYS34       0.0271
     43  CG         7.0300   53.4180   52.7760 C.3    34  LYS34       0.0035
     44  CD         7.5420   52.6110   53.9270 C.3    34  LYS34       0.0206
     45  CE         6.8530   52.9870   55.1850 C.3    34  LYS34       0.1093
     46  NZ         7.3410   52.0970   56.2430 N.3    34  LYS34      -0.1314
     47  N         15.0440   44.2080   56.8470 N.3    65  VAL65      -0.1245
     48  CA        14.8630   44.8350   55.5650 C.3    65  VAL65       0.1561
     49  C         15.8480   46.0130   55.3830 C.2    65  VAL65       0.2260
     50  O         16.0620   46.8360   56.3020 O.2    65  VAL65      -0.2867
     51  CB        13.3550   45.1870   55.4210 C.3    65  VAL65       0.0252
     52  CG1       13.0080   46.6150   55.9110 C.3    65  VAL65       0.0019
     53  CG2       12.8570   44.8270   54.0660 C.3    65  VAL65       0.0019
     54  N         13.8960   50.7390   49.4370 N.3    81  PHE81      -0.1227
     55  CA        14.2970   49.5150   50.1430 C.3    81  PHE81       0.1736
     56  C         14.6760   48.4520   49.1270 C.2    81  PHE81       0.2595
     57  O         14.2530   48.5180   47.9590 O.2    81  PHE81      -0.2718
     58  CB        13.1370   48.9350   50.9490 C.3    81  PHE81       0.0547
     59  CG        12.7370   49.7140   52.1930 C.ar   81  PHE81      -0.0202
     60  CD1       11.6630   50.5830   52.1640 C.ar   81  PHE81      -0.0042
     61  CD2       13.3600   49.4670   53.4270 C.ar   81  PHE81      -0.0042
     62  CE1       11.2440   51.2720   53.3590 C.ar   81  PHE81      -0.0003
     63  CE2       12.9690   50.1440   54.5930 C.ar   81  PHE81      -0.0003
     64  CZ        11.9100   51.0590   54.5540 C.ar   81  PHE81      -0.0000
     65  N         15.4440   47.4530   49.5640 N.am   82  GLU82      -0.1965
     66  CA        15.5970   46.2170   48.7940 C.3    82  GLU82       0.1733
     67  C         14.2090   45.5900   48.6960 C.2    82  GLU82       0.2616
     68  O         13.4740   45.5890   49.6760 O.2    82  GLU82      -0.2715
     69  CB        16.5170   45.2350   49.5350 C.3    82  GLU82       0.0429
     70  CG        15.8740   44.7440   50.8960 C.3    82  GLU82       0.1163
     71  CD        16.5650   43.5550   51.5500 C.2    82  GLU82       0.3649
     72  OE1       16.8350   42.5480   50.8820 O.co2  82  GLU82      -0.2457
     73  OE2       16.8160   43.6290   52.7770 O.co2  82  GLU82      -0.2457
     74  N         13.8480   45.0690   47.5240 N.am   83  HIS83      -0.1959
     75  CA        12.5780   44.3580   47.3670 C.3    83  HIS83       0.1787
     76  C         12.7540   42.9160   47.8090 C.2    83  HIS83       0.2620
     77  O         13.7260   42.2720   47.4440 O.2    83  HIS83      -0.2715
     78  CB        12.1000   44.4160   45.9200 C.3    83  HIS83       0.0785
     79  CG        10.7990   43.7110   45.6620 C.ar   83  HIS83       0.0821
     80  ND1       10.7290   42.4660   45.0690 N.ar   83  HIS83      -0.2267
     81  CD2        9.5190   44.1040   45.8600 C.ar   83  HIS83       0.1154
     82  CE1        9.4620   42.1070   44.9510 C.ar   83  HIS83       0.1986
     83  NE2        8.7100   43.0820   45.4350 N.ar   83  HIS83      -0.2212
     84  N         11.8090   42.4430   48.6110 N.am   84  VAL84      -0.1963
     85  CA        11.7390   41.0730   49.0550 C.3    84  VAL84       0.1727
     86  C         10.5090   40.4560   48.3750 C.2    84  VAL84       0.2616
     87  O          9.5980   41.1700   47.9940 O.2    84  VAL84      -0.2715
     88  CB        11.6320   40.9830   50.6110 C.3    84  VAL84       0.0290
     89  CG1       11.9190   39.5770   51.0920 C.3    84  VAL84       0.0023
     90  CG2       12.6110   41.9440   51.2920 C.3    84  VAL84       0.0023
     91  N         10.4730   39.1350   48.2420 N.am   85  ASP85      -0.1957
     92  CA         9.5390   38.4740   47.2950 C.3    85  ASP85       0.1840
     93  C          8.0860   38.2860   47.7370 C.2    85  ASP85       0.2622
     94  O          7.1830   38.3750   46.9300 O.2    85  ASP85      -0.2715
     95  CB        10.1220   37.1340   46.8470 C.3    85  ASP85       0.1450
     96  CG        11.4590   37.3030   46.1500 C.2    85  ASP85       0.3671
     97  OD1       12.5200   37.1780   46.8060 O.co2  85  ASP85      -0.2456
     98  OD2       11.4490   37.6140   44.9500 O.co2  85  ASP85      -0.2456
     99  N          7.8640   38.0170   49.0140 N.am   86  GLN86      -0.1963
    100  CA         6.5430   37.6740   49.4790 C.3    86  GLN86       0.1733
    101  C          6.5060   37.8790   50.9820 C.2    86  GLN86       0.2616
    102  O          7.5470   37.8680   51.6370 O.2    86  GLN86      -0.2715
    103  CB         6.2600   36.2170   49.1250 C.3    86  GLN86       0.0408
    104  CG         4.9030   35.6950   49.5240 C.3    86  GLN86       0.0908
    105  CD         4.5480   34.4600   48.7510 C.2    86  GLN86       0.2608
    106  OE1        4.3760   34.5150   47.5430 O.2    86  GLN86      -0.2717
    107  NE2        4.4500   33.3400   49.4260 N.am   86  GLN86      -0.0878
    108  N          5.3230   38.0510   51.5420 N.am   87  ASP87      -0.1971
    109  CA         5.2270   38.0740   52.9880 C.3    87  ASP87       0.1709
    110  C          4.8320   36.7080   53.5250 C.2    87  ASP87       0.2293
    111  O          4.3090   35.8730   52.7980 O.2    87  ASP87      -0.2864
    112  CB         4.3410   39.2280   53.4930 C.3    87  ASP87       0.1436
    113  CG         2.8650   39.0560   53.1770 C.2    87  ASP87       0.3671
    114  OD1        2.2660   38.0590   53.6050 O.co2  87  ASP87      -0.2456
    115  OD2        2.2690   39.9630   52.5530 O.co2  87  ASP87      -0.2456
    116  N          1.0340   35.4970   53.1950 N.3    90  LYS90      -0.1245
    117  CA         0.6350   34.9650   51.8880 C.3    90  LYS90       0.1561
    118  C          1.1890   33.5620   51.6780 C.2    90  LYS90       0.2260
    119  O          0.5130   32.7070   51.1240 O.2    90  LYS90      -0.2867
    120  CB         1.0490   35.9040   50.7580 C.3    90  LYS90       0.0271
    121  CG         0.2690   35.6660   49.4640 C.3    90  LYS90       0.0035
    122  CD         0.6930   36.5920   48.3490 C.3    90  LYS90       0.0206
    123  CE         0.3440   36.0220   46.9830 C.3    90  LYS90       0.1093
    124  NZ         1.1580   36.6850   45.9040 N.3    90  LYS90      -0.1314
    125  N          4.2150   40.5880   63.0780 N.3   130  LYS130     -0.1245
    126  CA         3.0550   39.8770   62.5990 C.3   130  LYS130      0.1561
    127  C          3.4970   39.4130   61.2170 C.2   130  LYS130      0.2260
    128  O          4.4040   40.0340   60.6340 O.2   130  LYS130     -0.2867
    129  CB         1.8210   40.7950   62.5340 C.3   130  LYS130      0.0271
    130  CG         1.9130   42.0020   61.5820 C.3   130  LYS130      0.0035
    131  CD         0.6500   42.7500   61.6570 C.3   130  LYS130      0.0206
    132  CE         0.6560   43.8790   60.6900 C.3   130  LYS130      0.1093
    133  NZ        -0.6400   44.6530   60.8270 N.3   130  LYS130     -0.1314
    134  N          2.4180   39.5270   58.2010 N.3   132  GLN132     -0.1231
    135  CA         2.3410   40.5250   57.1600 C.3   132  GLN132      0.1698
    136  C          3.5770   41.4370   57.0940 C.2   132  GLN132      0.2592
    137  O          3.8880   41.9680   56.0390 O.2   132  GLN132     -0.2718
    138  CB         1.1020   41.3820   57.3470 C.3   132  GLN132      0.0381
    139  CG        -0.2560   40.6460   57.2250 C.3   132  GLN132      0.0905
    140  CD        -0.7380   39.9370   58.5180 C.2   132  GLN132      0.2608
    141  OE1       -0.1060   39.9840   59.5690 O.2   132  GLN132     -0.2717
    142  NE2       -1.8720   39.2490   58.4010 N.am  132  GLN132     -0.0878
    143  N          4.2790   41.5900   58.2150 N.am  133  ASN133     -0.1974
    144  CA         5.4520   42.4620   58.3160 C.3   133  ASN133      0.1688
    145  C          6.7460   41.6350   58.2520 C.2   133  ASN133      0.2292
    146  O          7.8070   42.0980   58.6180 O.2   133  ASN133     -0.2864
    147  CB         5.4050   43.2990   59.6380 C.3   133  ASN133      0.1181
    148  CG         4.3490   44.3890   59.6140 C.2   133  ASN133      0.2629
    149  OD1        3.7090   44.6200   58.5850 O.2   133  ASN133     -0.2716
    150  ND2        4.1410   45.0600   60.7570 N.am  133  ASN133     -0.0877
    151  N          9.0800   39.2110   55.7710 N.3   135  LEU135     -0.1245
    152  CA         9.2030   39.0260   54.3350 C.3   135  LEU135      0.1561
    153  C         10.2290   37.9820   53.9830 C.2   135  LEU135      0.2260
    154  O         11.3340   37.9550   54.5530 O.2   135  LEU135     -0.2867
    155  CB         9.5370   40.3590   53.6280 C.3   135  LEU135      0.0270
    156  CG         8.7400   41.6060   54.0010 C.3   135  LEU135      0.0019
    157  CD1        9.2490   42.7350   53.1360 C.3   135  LEU135      0.0001
    158  CD2        7.2110   41.4550   53.8220 C.3   135  LEU135      0.0001
    159  N         10.2090   43.6590   58.5170 N.3   145  ALA145     -0.1231
    160  CA         9.8340   44.8240   57.7470 C.3   145  ALA145      0.1694
    161  C          8.8310   45.7150   58.5140 C.2   145  ALA145      0.2592
    162  O          8.4000   45.3840   59.6350 O.2   145  ALA145     -0.2718
    163  CB         9.2870   44.4140   56.3900 C.3   145  ALA145      0.0304
    164  N          8.4560   46.8300   57.9030 N.am  146  ASP146     -0.1974
    165  CA         7.6090   47.8570   58.5440 C.3   146  ASP146      0.1709
    166  C          7.9930   48.2580   59.9800 C.2   146  ASP146      0.2293
    167  O          7.3630   47.8420   60.9900 O.2   146  ASP146     -0.2864
    168  CB         6.1140   47.5600   58.4340 C.3   146  ASP146      0.1436
    169  CG         5.2650   48.8250   58.5410 C.2   146  ASP146      0.3671
    170  OD1        5.8230   49.9420   58.8030 O.co2 146  ASP146     -0.2456
    171  OD2        4.0320   48.7090   58.3310 O.co2 146  ASP146     -0.2456
@<TRIPOS>BOND
     1    98    96   ar
     2    82    80   ar
     3    82    83   ar
     4    80    79   ar
     5    83    81   ar
     6    79    81   ar
     7    79    78    1
     8   124   123    1
     9    78    75    1
    10     1     2    1
    11    96    97   ar
    12    96    95    1
    13     6     8    1
    14     6     5    1
    15    33    34    1
    16    95    92    1
    17    94    93    2
    18   123   122    1
    19     2     5    1
    20     2     3    1
    21    34    35    1
    22    34    37    1
    23    92    93    1
    24    92    91    1
    25    75    74    1
    26    75    76    1
    27    77    76    2
    28    29    28    2
    29    74    67   am
    30   106   105    2
    31    35    36    2
    32     5     7    1
    33    93    99   am
    34    28    27    1
    35    76    84   am
    36    57    56    2
    37    87    86    2
    38     3     4    2
    39     3     9    1
    40    91    86   am
    41   122   121    1
    42    86    85    1
    43    84    85    1
    44    67    66    1
    45    67    68    2
    46   105   107   am
    47   105   104    1
    48    66    69    1
    49    66    65    1
    50     9    10    2
    51    99   100    1
    52    85    88    1
    53   103   100    1
    54   103   104    1
    55    56    65   am
    56    56    55    1
    57    27    26    1
    58    27    30    1
    59    31    30    1
    60    38    39    1
    61    54    55    1
    62   121   120    1
    63   100   101    1
    64    69    70    1
    65    10    11    1
    66    30    32    1
    67    40    41    2
    68    40    39    1
    69    55    58    1
    70    21    19   ar
    71    39    42    1
    72    12    11    2
    73    88    89    1
    74    88    90    1
    75   120   117    1
    76    11    13   am
    77    72    71   ar
    78    70    71    1
    79    58    59    1
    80   101   108   am
    81   101   102    2
    82   119   118    2
    83    19    18    1
    84    19    20   ar
    85   108   109    1
    86    71    73   ar
    87    18    17    1
    88   118   117    1
    89    42    43    1
    90    13    14    1
    91   117   116    1
    92    60    59   ar
    93    60    62   ar
    94    59    61   ar
    95   115   113   ar
    96    43    44    1
    97    14    17    1
    98    14    15    1
    99   111   110    2
   100   109   112    1
   101   109   110    1
   102   157   156    1
   103   113   112    1
   104   113   114   ar
   105    62    64   ar
   106    61    63   ar
   107   155   156    1
   108   155   152    1
   109   158   156    1
   110    44    45    1
   111   153   152    1
   112   153   154    2
   113    53    51    1
   114    15    16    2
   115    15    22   am
   116   152   151    1
   117    64    63   ar
   118    22    23    1
   119    45    46    1
   120    49    48    1
   121    49    50    2
   122    51    48    1
   123    51    52    1
   124    48    47    1
   125   137   136    2
   126    23    24    1
   127   163   160    1
   128    25    24    2
   129   136   135    1
   130   136   143   am
   131   135   138    1
   132   135   134    1
   133   139   138    1
   134   139   140    1
   135   160   161    1
   136   160   159    1
   137   164   161   am
   138   164   165    1
   139   143   144    1
   140   145   144    1
   141   145   146    2
   142   144   147    1
   143   171   169   ar
   144   142   140   am
   145   168   169    1
   146   168   165    1
   147   161   162    2
   148   140   141    2
   149   169   170   ar
   150   165   166    1
   151   149   148    2
   152   148   147    1
   153   148   150   am
   154   166   167    2
   155   128   127    2
   156   132   133    1
   157   132   131    1
   158   127   126    1
   159   130   131    1
   160   130   129    1
   161   129   126    1
   162   126   125    1
