@<TRIPOS>MOLECULE
tmp/2iwbA00.pdb
 88 85 0 0 0
SMALL
GASTEIGER

@<TRIPOS>ATOM
      1  N         57.2300   12.4120   29.0800 N.3    67  LEU67      -0.1231
      2  CA        56.4410   11.2920   29.5860 C.3    67  LEU67       0.1693
      3  C         56.5560   10.1660   28.5830 C.2    67  LEU67       0.2591
      4  O         56.5870    8.9960   28.9380 O.2    67  LEU67      -0.2718
      5  CB        54.9710   11.6790   29.7370 C.3    67  LEU67       0.0284
      6  CG        54.7040   12.8090   30.7360 C.3    67  LEU67       0.0019
      7  CD1       53.2330   13.1890   30.6850 C.3    67  LEU67       0.0001
      8  CD2       55.0910   12.2810   32.1040 C.3    67  LEU67       0.0001
      9  N         56.5340   10.5630   27.3210 N.am   68  LEU68      -0.1980
     10  CA        56.7920    9.6820   26.2440 C.3    68  LEU68       0.1596
     11  C         58.1480   10.1010   25.7250 C.2    68  LEU68       0.2287
     12  O         58.4890   11.2910   25.7020 O.2    68  LEU68      -0.2864
     13  CB        55.7900    9.9050   25.1370 C.3    68  LEU68       0.0297
     14  CG        54.3190    9.5390   25.4160 C.3    68  LEU68       0.0022
     15  CD1       53.4430    9.9560   24.2610 C.3    68  LEU68       0.0001
     16  CD2       54.2180    8.0510   25.6710 C.3    68  LEU68       0.0001
     17  N         60.0820    4.7060   24.3880 N.3    72  HIS72      -0.1241
     18  CA        59.5110    4.7700   25.6970 C.3    72  HIS72       0.1621
     19  C         58.0920    5.2900   25.5520 C.2    72  HIS72       0.2264
     20  O         57.8100    6.4370   25.8680 O.2    72  HIS72      -0.2867
     21  CB        60.3060    5.7180   26.5650 C.3    72  HIS72       0.0745
     22  CG        59.9210    5.6770   28.0030 C.ar   72  HIS72       0.0817
     23  ND1       59.1470    6.6550   28.5890 N.ar   72  HIS72      -0.2268
     24  CD2       60.1880    4.7770   28.9680 C.ar   72  HIS72       0.1154
     25  CE1       58.9530    6.3540   29.8580 C.ar   72  HIS72       0.1986
     26  NE2       59.5840    5.2230   30.1160 N.ar   72  HIS72      -0.2212
     27  N         55.4470    2.6810   25.9690 N.3    74  GLU74      -0.1231
     28  CA        54.5440    1.5790   26.3430 C.3    74  GLU74       0.1699
     29  C         53.8860    1.8210   27.6430 C.2    74  GLU74       0.2592
     30  O         54.4640    2.4070   28.5560 O.2    74  GLU74      -0.2718
     31  CB        55.2440    0.2180   26.3900 C.3    74  GLU74       0.0402
     32  CG        55.6610   -0.2220   25.0520 C.3    74  GLU74       0.1161
     33  CD        56.5830   -1.4310   25.0860 C.2    74  GLU74       0.3649
     34  OE1       57.0590   -1.8540   26.1650 O.co2  74  GLU74      -0.2457
     35  OE2       56.7930   -1.9540   23.9870 O.co2  74  GLU74      -0.2457
     36  N         52.6730    1.3140   27.7520 N.am   75  GLN75      -0.1966
     37  CA        52.0280    1.2120   29.0410 C.3    75  GLN75       0.1733
     38  C         51.4560   -0.1470   29.1890 C.2    75  GLN75       0.2616
     39  O         50.8400   -0.6650   28.2690 O.2    75  GLN75      -0.2715
     40  CB        50.8650    2.1910   29.1200 C.3    75  GLN75       0.0408
     41  CG        51.3840    3.6320   29.1620 C.3    75  GLN75       0.0908
     42  CD        50.2700    4.6160   29.3900 C.2    75  GLN75       0.2608
     43  OE1       49.2810    4.3040   30.0640 O.2    75  GLN75      -0.2717
     44  NE2       50.3970    5.7980   28.7920 N.am   75  GLN75      -0.0878
     45  N         51.5930   -0.6850   30.3860 N.am   76  GLN76      -0.1977
     46  CA        51.1010   -2.0190   30.6460 C.3    76  GLN76       0.1601
     47  C         49.6650   -1.9100   31.1050 C.2    76  GLN76       0.2287
     48  O         49.3100   -1.0190   31.8660 O.2    76  GLN76      -0.2864
     49  CB        51.9730   -2.6980   31.6860 C.3    76  GLN76       0.0394
     50  CG        53.2500   -3.2560   31.0350 C.3    76  GLN76       0.0908
     51  CD        54.3570   -2.1890   30.7890 C.2    76  GLN76       0.2608
     52  OE1       54.5180   -1.6560   29.6750 O.2    76  GLN76      -0.2717
     53  NE2       55.1240   -1.8930   31.8340 N.am   76  GLN76      -0.0878
     54  N         46.3370    8.2330   31.5750 N.3   107  ASN107     -0.1225
     55  CA        47.5690    8.0540   32.3550 C.3   107  ASN107      0.1785
     56  C         48.5980    9.1380   32.0540 C.2   107  ASN107      0.2597
     57  O         49.3120    9.5860   32.9690 O.2   107  ASN107     -0.2718
     58  CB        48.2050    6.6780   32.0860 C.3   107  ASN107      0.1169
     59  CG        47.5070    5.5490   32.8170 C.2   107  ASN107      0.2627
     60  OD1       46.7530    5.7800   33.7730 O.2   107  ASN107     -0.2716
     61  ND2       47.7640    4.3090   32.3830 N.am  107  ASN107     -0.0877
     62  N         48.7080    9.5260   30.7900 N.am  108  LEU108     -0.1980
     63  CA        49.6420   10.6000   30.4230 C.3   108  LEU108      0.1596
     64  C         49.1740   11.9400   30.9770 C.2   108  LEU108      0.2287
     65  O         49.9570   12.7170   31.5090 O.2   108  LEU108     -0.2864
     66  CB        49.7710   10.7130   28.9180 C.3   108  LEU108      0.0297
     67  CG        50.4260    9.4740   28.3010 C.3   108  LEU108      0.0022
     68  CD1       50.3850    9.6520   26.7890 C.3   108  LEU108      0.0001
     69  CD2       51.8430    9.2890   28.8480 C.3   108  LEU108      0.0001
     70  N         47.4190   12.5210   33.4960 N.3   110  LYS110     -0.1231
     71  CA        47.6410   12.5230   34.9170 C.3   110  LYS110      0.1693
     72  C         48.9280   13.2290   35.3000 C.2   110  LYS110      0.2592
     73  O         48.9960   13.8280   36.3810 O.2   110  LYS110     -0.2718
     74  CB        47.5950   11.0890   35.4690 C.3   110  LYS110      0.0285
     75  CG        48.0960   10.9320   36.8700 C.3   110  LYS110      0.0035
     76  CD        47.6650    9.5810   37.4500 C.3   110  LYS110      0.0206
     77  CE        47.8510    9.5410   38.9610 C.3   110  LYS110      0.1093
     78  NZ        47.4170    8.2110   39.5030 N.3   110  LYS110     -0.1314
     79  N         49.9390   13.1840   34.4390 N.am  111  HIS111     -0.1976
     80  CA        51.2370   13.7730   34.7940 C.3   111  HIS111      0.1656
     81  C         51.4070   15.1450   34.2410 C.2   111  HIS111      0.2291
     82  O         52.4480   15.7700   34.4120 O.2   111  HIS111     -0.2864
     83  CB        52.3620   12.9050   34.2960 C.3   111  HIS111      0.0771
     84  CG        52.3910   11.6050   34.9830 C.ar  111  HIS111      0.0820
     85  ND1       52.7940   11.4790   36.2940 N.ar  111  HIS111     -0.2267
     86  CD2       51.9500   10.3920   34.5960 C.ar  111  HIS111      0.1154
     87  CE1       52.6570   10.2200   36.6650 C.ar  111  HIS111      0.1986
     88  NE2       52.1470    9.5430   35.6550 N.ar  111  HIS111     -0.2212
@<TRIPOS>BOND
     1    35    33   ar
     2    15    14    1
     3    17    18    1
     4    32    33    1
     5    32    31    1
     6    33    34   ar
     7    13    14    1
     8    13    10    1
     9    14    16    1
    10    19    18    1
    11    19    20    2
    12    18    21    1
    13    12    11    2
    14    11    10    1
    15    27    28    1
    16    10     9    1
    17    28    31    1
    18    28    29    1
    19    21    22    1
    20    68    67    1
    21     9     3   am
    22    29    36   am
    23    29    30    2
    24    36    37    1
    25    22    23   ar
    26    22    24   ar
    27    39    38    2
    28    67    69    1
    29    67    66    1
    30     3     4    2
    31     3     2    1
    32    23    25   ar
    33    44    42   am
    34    66    63    1
    35    24    26   ar
    36    37    40    1
    37    37    38    1
    38     1     2    1
    39    40    41    1
    40    41    42    1
    41    38    45   am
    42    42    43    2
    43     2     5    1
    44    52    51    2
    45     5     6    1
    46    25    26   ar
    47    45    46    1
    48    63    62    1
    49    63    64    1
    50    46    47    1
    51    46    49    1
    52     7     6    1
    53     6     8    1
    54    51    50    1
    55    51    53   am
    56    62    56   am
    57    64    65    2
    58    50    49    1
    59    47    48    2
    60    54    55    1
    61    56    55    1
    62    56    57    2
    63    58    55    1
    64    58    59    1
    65    61    59   am
    66    59    60    2
    67    70    71    1
    68    81    82    2
    69    81    80    1
    70    83    80    1
    71    83    84    1
    72    79    80    1
    73    79    72   am
    74    86    84   ar
    75    86    88   ar
    76    71    72    1
    77    71    74    1
    78    84    85   ar
    79    72    73    2
    80    74    75    1
    81    88    87   ar
    82    85    87   ar
    83    75    76    1
    84    76    77    1
    85    77    78    1
