@<TRIPOS>MOLECULE
tmp/2iweD00.pdb
 85 83 0 0 0
SMALL
GASTEIGER

@<TRIPOS>ATOM
      1  N        -20.7260  -10.0320   -2.2150 N.3    13  MET13      -0.1245
      2  CA       -20.7690  -10.7510   -0.9300 C.3    13  MET13       0.1570
      3  C        -22.1670  -10.7760   -0.3450 C.2    13  MET13       0.2261
      4  O        -22.3330  -10.6940    0.8680 O.2    13  MET13      -0.2867
      5  CB       -19.8610  -10.1070    0.1010 C.3    13  MET13       0.0387
      6  CG       -18.4160  -10.2390   -0.1370 C.3    13  MET13       0.0595
      7  SD       -17.5840   -9.8720    1.3990 S.3    13  MET13      -0.1393
      8  CE       -18.1800   -8.2080    1.7730 C.3    13  MET13       0.0692
      9  N        -11.4850  -15.6570   -5.7610 N.3    43  VAL43      -0.1231
     10  CA       -11.6100  -14.2600   -5.3670 C.3    43  VAL43       0.1692
     11  C        -12.9000  -14.0260   -4.5910 C.2    43  VAL43       0.2592
     12  O        -12.8730  -13.4550   -3.5040 O.2    43  VAL43      -0.2718
     13  CB       -11.5220  -13.2960   -6.5950 C.3    43  VAL43       0.0266
     14  CG1      -11.8570  -11.8940   -6.1940 C.3    43  VAL43       0.0020
     15  CG2      -10.1320  -13.3420   -7.2080 C.3    43  VAL43       0.0020
     16  N        -14.0090  -14.5340   -5.1300 N.am   44  MET44      -0.1965
     17  CA       -15.3490  -14.2720   -4.6020 C.3    44  MET44       0.1736
     18  C        -16.1040  -15.6070   -4.4300 C.2    44  MET44       0.2617
     19  O        -17.2830  -15.7310   -4.8200 O.2    44  MET44      -0.2715
     20  CB       -16.0960  -13.3530   -5.5720 C.3    44  MET44       0.0427
     21  CG       -17.3970  -12.7830   -5.0740 C.3    44  MET44       0.0599
     22  SD       -17.2700  -11.8030   -3.5630 S.3    44  MET44      -0.1393
     23  CE       -16.1330  -10.5120   -4.0390 C.3    44  MET44       0.0692
     24  N        -15.4180  -16.6110   -3.8710 N.am   45  GLY45      -0.1940
     25  CA       -16.0430  -17.9070   -3.6150 C.3    45  GLY45       0.2014
     26  C        -17.2090  -17.8100   -2.6530 C.2    45  GLY45       0.2638
     27  O        -17.1850  -17.0130   -1.7280 O.2    45  GLY45      -0.2714
     28  N        -18.2590  -18.5790   -2.9150 N.am   46  HIS46      -0.1973
     29  CA       -19.3770  -18.6930   -1.9800 C.3    46  HIS46       0.1656
     30  C        -19.7840  -20.1570   -1.8040 C.2    46  HIS46       0.2291
     31  O        -19.9320  -20.9040   -2.7850 O.2    46  HIS46      -0.2864
     32  CB       -20.6060  -17.9220   -2.4680 C.3    46  HIS46       0.0771
     33  CG       -20.3650  -16.4710   -2.7550 C.ar   46  HIS46       0.0820
     34  ND1      -19.6500  -15.6460   -1.9120 N.ar   46  HIS46      -0.2267
     35  CD2      -20.8510  -15.6720   -3.7370 C.ar   46  HIS46       0.1154
     36  CE1      -19.6590  -14.4150   -2.3930 C.ar   46  HIS46       0.1986
     37  NE2      -20.3880  -14.4020   -3.4950 N.ar   46  HIS46      -0.2212
     38  N        -21.4230  -18.0870    4.2170 N.3   112  CYS112     -0.1235
     39  CA       -20.2930  -18.4980    3.4030 C.3   112  CYS112      0.1677
     40  C        -19.0270  -18.4060    4.2210 C.2   112  CYS112      0.2270
     41  O        -18.8070  -17.4230    4.8930 O.2   112  CYS112     -0.2867
     42  CB       -20.1660  -17.6160    2.1720 C.3   112  CYS112      0.0956
     43  SG       -18.5860  -17.7560    1.4060 S.3   112  CYS112     -0.0801
     44  N        -15.8410  -18.4790    3.0990 N.3   114  PHE114     -0.1228
     45  CA       -14.7390  -17.8510    2.3780 C.3   114  PHE114      0.1721
     46  C        -14.2430  -16.6140    3.1750 C.2   114  PHE114      0.2437
     47  O        -15.0640  -15.9190    3.7820 O.2   114  PHE114     -0.2733
     48  CB       -15.2480  -17.4370    1.0010 C.3   114  PHE114      0.0547
     49  CG       -14.1790  -17.1040    0.0280 C.ar  114  PHE114     -0.0202
     50  CD1      -13.6180  -15.8310   -0.0060 C.ar  114  PHE114     -0.0042
     51  CD2      -13.7510  -18.0400   -0.8880 C.ar  114  PHE114     -0.0042
     52  CE1      -12.6210  -15.5030   -0.9340 C.ar  114  PHE114     -0.0003
     53  CE2      -12.7460  -17.7300   -1.8080 C.ar  114  PHE114     -0.0003
     54  CZ       -12.1850  -16.4510   -1.8310 C.ar  114  PHE114     -0.0000
     55  N        -12.8980  -16.3720    3.2210 N.am  115  PRO115     -0.2718
     56  CA       -12.3150  -15.2810    4.0250 C.3   115  PRO115      0.1535
     57  C        -12.7520  -13.9120    3.5530 C.2   115  PRO115      0.2599
     58  O        -12.4380  -13.5160    2.4270 O.2   115  PRO115     -0.2715
     59  CB       -10.8100  -15.4710    3.8510 C.3   115  PRO115      0.0310
     60  CG       -10.6600  -16.3010    2.6800 C.3   115  PRO115      0.0237
     61  CD       -11.8500  -17.1750    2.5880 C.3   115  PRO115      0.0939
     62  N        -13.4510  -13.1880    4.4360 N.am  116  GLY116     -0.1941
     63  CA       -14.3660  -12.1190    4.0220 C.3   116  GLY116      0.2014
     64  C        -13.8060  -10.7210    3.7970 C.2   116  GLY116      0.2639
     65  O        -12.5930  -10.5050    3.7620 O.2   116  GLY116     -0.2714
     66  N        -14.7180   -9.7830    3.5770 N.am  117  GLY117     -0.1954
     67  CA       -14.4040   -8.3620    3.5810 C.3   117  GLY117      0.1869
     68  C        -14.7950   -7.7590    4.9190 C.2   117  GLY117      0.2309
     69  O        -14.3060   -8.1970    5.9660 O.2   117  GLY117     -0.2863
     70  N        -19.5160  -10.7870    7.7020 N.3   120  LEU120     -0.1231
     71  CA       -19.7860  -12.1170    7.1270 C.3   120  LEU120      0.1693
     72  C        -21.1220  -12.2590    6.3880 C.2   120  LEU120      0.2591
     73  O        -22.1300  -11.6460    6.7790 O.2   120  LEU120     -0.2718
     74  CB       -19.6620  -13.1920    8.2000 C.3   120  LEU120      0.0284
     75  CG       -18.2680  -13.8010    8.3910 C.3   120  LEU120      0.0019
     76  CD1      -17.2240  -12.8250    9.0460 C.3   120  LEU120      0.0001
     77  CD2      -18.3920  -15.0930    9.1840 C.3   120  LEU120      0.0001
     78  N        -21.1240  -13.0730    5.3250 N.am  121  MET121     -0.1979
     79  CA       -22.3450  -13.3410    4.5660 C.3   121  MET121      0.1605
     80  C        -23.2500  -14.2550    5.3700 C.2   121  MET121      0.2287
     81  O        -23.2350  -15.4560    5.1830 O.2   121  MET121     -0.2864
     82  CB       -22.0240  -14.0140    3.2430 C.3   121  MET121      0.0413
     83  CG       -21.2580  -13.1830    2.2700 C.3   121  MET121      0.0598
     84  SD       -21.1160  -14.0340    0.6890 S.3   121  MET121     -0.1393
     85  CE       -22.8290  -14.3080    0.2570 C.3   121  MET121      0.0692
@<TRIPOS>BOND
     1    15    13    1
     2    13    14    1
     3    13    10    1
     4     9    10    1
     5    20    21    1
     6    20    17    1
     7    10    11    1
     8    16    17    1
     9    16    11   am
    10    21    22    1
    11    19    18    2
    12    17    18    1
    13    11    12    2
    14    18    24   am
    15    23    22    1
    16    24    25    1
    17    35    37   ar
    18    35    33   ar
    19    25    26    1
    20    37    36   ar
    21    28    26   am
    22    28    29    1
    23    31    30    2
    24    33    32    1
    25    33    34   ar
    26    26    27    2
    27    32    29    1
    28    36    34   ar
    29     1     2    1
    30    29    30    1
    31    54    53   ar
    32    54    52   ar
    33    53    51   ar
    34    52    50   ar
    35     2     3    1
    36     2     5    1
    37    51    49   ar
    38     3     4    2
    39     6     5    1
    40     6     7    1
    41    50    49   ar
    42    49    48    1
    43    85    84    1
    44    84    83    1
    45    48    45    1
    46     7     8    1
    47    43    42    1
    48    42    39    1
    49    83    82    1
    50    45    44    1
    51    45    46    1
    52    58    57    2
    53    61    60    1
    54    61    55    1
    55    60    59    1
    56    46    55   am
    57    46    47    2
    58    55    56    1
    59    82    79    1
    60    39    38    1
    61    39    40    1
    62    57    56    1
    63    57    62   am
    64    66    67    1
    65    66    64   am
    66    67    68    1
    67    65    64    2
    68    64    63    1
    69    59    56    1
    70    63    62    1
    71    40    41    2
    72    79    78    1
    73    79    80    1
    74    68    69    2
    75    81    80    2
    76    78    72   am
    77    72    73    2
    78    72    71    1
    79    71    70    1
    80    71    74    1
    81    74    75    1
    82    75    76    1
    83    75    77    1
