@<TRIPOS>MOLECULE
tmp/2iwgA00.pdb
 132 124 0 0 0
SMALL
GASTEIGER

@<TRIPOS>ATOM
      1  N        -41.7410  -54.7620  -12.4950 N.3     3  SER3       -0.1217
      2  CA       -41.9430  -53.6970  -13.4600 C.3     3  SER3        0.1889
      3  C        -41.0960  -52.4800  -13.0950 C.2     3  SER3        0.2288
      4  O        -40.8700  -52.2400  -11.9180 O.2     3  SER3       -0.2866
      5  CB       -43.3960  -53.2330  -13.3660 C.3     3  SER3        0.2089
      6  OG       -44.2280  -54.0420  -14.1730 O.3     3  SER3       -0.2183
      7  N        -40.8230  -48.0680  -13.8980 N.3     5  PHE5       -0.1241
      8  CA       -41.1080  -46.7420  -14.4040 C.3     5  PHE5        0.1605
      9  C        -40.0580  -45.6840  -13.9910 C.2     5  PHE5        0.2264
     10  O        -39.7050  -45.5640  -12.8480 O.2     5  PHE5       -0.2867
     11  CB       -42.4560  -46.3260  -13.8380 C.3     5  PHE5        0.0534
     12  CG       -43.5330  -47.3680  -14.0100 C.ar    5  PHE5       -0.0203
     13  CD1      -44.2460  -47.4800  -15.2560 C.ar    5  PHE5       -0.0042
     14  CD2      -43.8510  -48.2710  -12.9530 C.ar    5  PHE5       -0.0042
     15  CE1      -45.2950  -48.5050  -15.4550 C.ar    5  PHE5       -0.0003
     16  CE2      -44.8770  -49.2720  -13.1520 C.ar    5  PHE5       -0.0003
     17  CZ       -45.6000  -49.3730  -14.4150 C.ar    5  PHE5       -0.0000
     18  N        -39.2210  -41.5400  -13.7200 N.3     7  PHE7       -0.1228
     19  CA       -39.9600  -40.2150  -13.6500 C.3     7  PHE7        0.1721
     20  C        -39.1640  -38.8820  -13.7730 C.2     7  PHE7        0.2437
     21  O        -38.0690  -38.7640  -13.2400 O.2     7  PHE7       -0.2733
     22  CB       -40.8580  -40.1770  -12.4380 C.3     7  PHE7        0.0547
     23  CG       -41.9030  -41.2540  -12.4570 C.ar    7  PHE7       -0.0202
     24  CD1      -43.1400  -41.0510  -13.1600 C.ar    7  PHE7       -0.0042
     25  CD2      -41.6650  -42.5140  -11.8080 C.ar    7  PHE7       -0.0042
     26  CE1      -44.1370  -42.0470  -13.2040 C.ar    7  PHE7       -0.0003
     27  CE2      -42.6630  -43.5360  -11.8190 C.ar    7  PHE7       -0.0003
     28  CZ       -43.9160  -43.2980  -12.5350 C.ar    7  PHE7       -0.0000
     29  N        -39.7290  -37.8450  -14.4340 N.am    8  PRO8       -0.2718
     30  CA       -38.8640  -36.6620  -14.5860 C.3     8  PRO8        0.1520
     31  C        -38.9160  -35.7880  -13.3380 C.2     8  PRO8        0.2440
     32  O        -39.7940  -35.9820  -12.5040 O.2     8  PRO8       -0.2731
     33  CB       -39.4750  -35.9190  -15.7860 C.3     8  PRO8        0.0310
     34  CG       -40.8160  -36.5060  -15.9960 C.3     8  PRO8        0.0237
     35  CD       -41.0710  -37.6110  -14.9960 C.3     8  PRO8        0.0939
     36  N        -37.9950  -34.8150  -13.2080 N.am    9  PRO9       -0.2716
     37  CA       -38.1170  -33.8700  -12.0950 C.3     9  PRO9        0.1536
     38  C        -39.3870  -33.1420  -12.1910 C.2     9  PRO9        0.2598
     39  O        -39.8480  -32.9210  -13.3030 O.2     9  PRO9       -0.2715
     40  CB       -37.0240  -32.8640  -12.3570 C.3     9  PRO9        0.0310
     41  CG       -36.3990  -33.2580  -13.6760 C.3     9  PRO9        0.0237
     42  CD       -36.7930  -34.5870  -14.0260 C.3     9  PRO9        0.0939
     43  N        -39.9540  -32.7280  -11.0660 N.am   10  LYS10      -0.1978
     44  CA       -41.0000  -31.6840  -11.0660 C.3    10  LYS10       0.1596
     45  C        -40.5130  -30.3650  -11.7130 C.2    10  LYS10       0.2287
     46  O        -39.5820  -29.7740  -11.1920 O.2    10  LYS10      -0.2864
     47  CB       -41.4010  -31.4100   -9.6280 C.3    10  LYS10       0.0298
     48  CG       -42.6430  -30.5930   -9.4450 C.3    10  LYS10       0.0038
     49  CD       -42.7720  -30.1190   -7.9880 C.3    10  LYS10       0.0206
     50  CE       -44.0980  -29.4150   -7.8350 C.3    10  LYS10       0.1093
     51  NZ       -43.9560  -27.9320   -8.2240 N.3    10  LYS10      -0.1314
     52  N        -38.8220  -27.2670  -10.2610 N.3    13  ASP13      -0.1239
     53  CA       -37.5860  -27.5530   -9.4860 C.3    13  ASP13       0.1674
     54  C        -36.3350  -27.2990  -10.2820 C.2    13  ASP13       0.2266
     55  O        -35.2810  -26.9530   -9.7130 O.2    13  ASP13      -0.2867
     56  CB       -37.5510  -29.0160   -8.9990 C.3    13  ASP13       0.1410
     57  CG       -38.5380  -29.3160   -7.8470 C.2    13  ASP13       0.3668
     58  OD1      -38.9490  -28.3630   -7.0900 O.co2  13  ASP13      -0.2456
     59  OD2      -38.8310  -30.5390   -7.6660 O.co2  13  ASP13      -0.2456
     60  N        -34.7330  -34.0750   -9.0810 N.3    22  GLU22      -0.1245
     61  CA       -34.5330  -35.5230   -9.0250 C.3    22  GLU22       0.1567
     62  C        -35.3340  -36.2350  -10.1190 C.2    22  GLU22       0.2260
     63  O        -36.5250  -36.0320  -10.3040 O.2    22  GLU22      -0.2867
     64  CB       -35.0550  -36.0530   -7.7070 C.3    22  GLU22       0.0388
     65  CG       -34.6580  -35.2300   -6.5410 C.3    22  GLU22       0.1160
     66  CD       -35.6070  -35.3890   -5.3070 C.2    22  GLU22       0.3649
     67  OE1      -36.8920  -35.5470   -5.4520 O.co2  22  GLU22      -0.2457
     68  OE2      -35.0410  -35.3470   -4.1650 O.co2  22  GLU22      -0.2457
     69  N        -36.6570  -39.9560  -10.6180 N.3    24  THR24      -0.1218
     70  CA       -37.0130  -41.1370   -9.8500 C.3    24  THR24       0.1862
     71  C        -37.2040  -42.4200  -10.6820 C.2    24  THR24       0.2287
     72  O        -37.8570  -42.4150  -11.7090 O.2    24  THR24      -0.2866
     73  CB       -38.2300  -40.8810   -9.0050 C.3    24  THR24       0.1770
     74  OG1      -38.1240  -39.5900   -8.3570 O.3    24  THR24      -0.2211
     75  CG2      -38.3220  -41.9630   -7.9800 C.3    24  THR24       0.0375
     76  N        -38.5990  -46.1050  -10.3050 N.3    26  VAL26      -0.1245
     77  CA       -39.5250  -46.8840   -9.5140 C.3    26  VAL26       0.1561
     78  C        -39.5470  -48.3280   -9.9760 C.2    26  VAL26       0.2260
     79  O        -39.6420  -48.6070  -11.1650 O.2    26  VAL26      -0.2867
     80  CB       -40.8860  -46.2650   -9.4790 C.3    26  VAL26       0.0252
     81  CG1      -41.7250  -46.9160   -8.3860 C.3    26  VAL26       0.0019
     82  CG2      -40.7520  -44.8480   -9.1020 C.3    26  VAL26       0.0019
     83  N        -41.6140  -51.7130   -9.2940 N.3    28  VAL28      -0.1231
     84  CA       -42.7220  -52.3770   -8.6770 C.3    28  VAL28       0.1692
     85  C        -42.6020  -53.8640   -8.9340 C.2    28  VAL28       0.2592
     86  O        -41.7060  -54.4000   -9.6630 O.2    28  VAL28      -0.2718
     87  CB       -44.0880  -51.8310   -9.0890 C.3    28  VAL28       0.0266
     88  CG1      -44.3740  -50.6290   -8.3050 C.3    28  VAL28       0.0020
     89  CG2      -44.1020  -51.5020  -10.6000 C.3    28  VAL28       0.0020
     90  N        -43.5950  -54.5110   -8.3860 N.am   29  ASP29      -0.1974
     91  CA       -43.3450  -55.6170   -7.5460 C.3    29  ASP29       0.1709
     92  C        -42.2940  -56.6810   -7.7980 C.2    29  ASP29       0.2293
     93  O        -42.1500  -57.3670   -8.8610 O.2    29  ASP29      -0.2864
     94  CB       -44.6190  -55.9800   -6.8660 C.3    29  ASP29       0.1436
     95  CG       -45.4620  -54.6750   -6.5400 C.2    29  ASP29       0.3671
     96  OD1      -46.6380  -54.5730   -7.0930 O.co2  29  ASP29      -0.2456
     97  OD2      -44.9380  -53.7380   -5.7990 O.co2  29  ASP29      -0.2456
     98  N        -46.0120  -53.5880   -0.0080 N.3    59  GLN59      -0.1245
     99  CA       -47.2810  -53.3540   -0.7430 C.3    59  GLN59       0.1566
    100  C        -48.4750  -54.3250   -0.3470 C.2    59  GLN59       0.2260
    101  O        -48.2650  -55.5530   -0.2290 O.2    59  GLN59      -0.2867
    102  CB       -46.9760  -53.3490   -2.2690 C.3    59  GLN59       0.0367
    103  CG       -45.9610  -52.2290   -2.6840 C.3    59  GLN59       0.0905
    104  CD       -46.2970  -50.7860   -2.1210 C.2    59  GLN59       0.2608
    105  OE1      -47.2540  -50.1700   -2.5530 O.2    59  GLN59      -0.2717
    106  NE2      -45.4750  -50.2630   -1.1810 N.am   59  GLN59      -0.0878
    107  N        -50.3230  -55.8540   -1.7410 N.3    61  ASN61      -0.1240
    108  CA       -50.2250  -56.9620   -2.6930 C.3    61  ASN61       0.1653
    109  C        -49.3390  -58.0980   -2.1640 C.2    61  ASN61       0.2266
    110  O        -49.1900  -59.1140   -2.8930 O.2    61  ASN61      -0.2867
    111  CB       -49.5720  -56.5190   -4.0120 C.3    61  ASN61       0.1155
    112  CG       -50.1240  -55.1900   -4.5970 C.2    61  ASN61       0.2627
    113  OD1      -50.5690  -54.1950   -3.8860 O.2    61  ASN61      -0.2716
    114  ND2      -50.0510  -55.1480   -5.9550 N.am   61  ASN61      -0.0877
    115  N        -46.1350  -57.4330   -1.8860 N.3    63  THR63      -0.1218
    116  CA       -44.9460  -57.2080   -2.7970 C.3    63  THR63       0.1862
    117  C        -44.1440  -55.9700   -2.4500 C.2    63  THR63       0.2287
    118  O        -44.6390  -55.0740   -1.6860 O.2    63  THR63      -0.2866
    119  CB       -45.3000  -57.2050   -4.3320 C.3    63  THR63       0.1770
    120  OG1      -46.4030  -56.3050   -4.5860 O.3    63  THR63      -0.2211
    121  CG2      -45.6020  -58.6710   -4.8740 C.3    63  THR63       0.0375
    122  N        -42.1650  -52.5600   -3.5760 N.3    65  ARG65      -0.1245
    123  CA       -41.8260  -51.3250   -4.2520 C.3    65  ARG65       0.1563
    124  C        -40.4320  -50.6230   -3.8950 C.2    65  ARG65       0.2260
    125  O        -40.2760  -49.9560   -2.8740 O.2    65  ARG65      -0.2867
    126  CB       -42.9380  -50.3580   -3.9290 C.3    65  ARG65       0.0307
    127  CG       -42.8990  -49.1900   -4.7790 C.3    65  ARG65       0.0489
    128  CD       -43.6110  -48.0870   -4.1540 C.3    65  ARG65       0.2205
    129  NE       -43.1070  -46.9270   -4.8670 N.pl3  65  ARG65      -0.0865
    130  CZ       -43.5580  -45.6880   -4.7560 C.cat  65  ARG65       0.5346
    131  NH1      -44.6050  -45.3920   -3.9350 N.pl3  65  ARG65       0.1354
    132  NH2      -42.9720  -44.7650   -5.5120 N.pl3  65  ARG65       0.1354
@<TRIPOS>BOND
     1    34    33    1
     2    34    35    1
     3    33    30    1
     4    15    13   ar
     5    15    17   ar
     6    13    12   ar
     7    35    29    1
     8    30    29    1
     9    30    31    1
    10    29    20   am
    11    17    16   ar
    12     8     9    1
    13     8     7    1
    14     8    11    1
    15     6     5    1
    16    42    41    1
    17    42    36    1
    18    12    11    1
    19    12    14   ar
    20     9    10    2
    21    20    19    1
    22    20    21    2
    23    18    19    1
    24    41    40    1
    25    19    22    1
    26     2     5    1
    27     2     3    1
    28     2     1    1
    29    31    36   am
    30    31    32    2
    31    39    38    2
    32    36    37    1
    33    26    24   ar
    34    26    28   ar
    35    24    23   ar
    36    16    14   ar
    37     3     4    2
    38    28    27   ar
    39    23    22    1
    40    23    25   ar
    41    40    37    1
    42    38    37    1
    43    38    43   am
    44    27    25   ar
    45    45    46    2
    46    45    44    1
    47    72    71    2
    48    79    78    2
    49    44    43    1
    50    44    47    1
    51    71    70    1
    52    69    70    1
    53    89    87    1
    54    76    77    1
    55    63    62    2
    56    54    55    2
    57    54    53    1
    58    52    53    1
    59    62    61    1
    60    78    77    1
    61    70    73    1
    62    86    85    2
    63    47    48    1
    64    77    80    1
    65    53    56    1
    66    80    82    1
    67    80    81    1
    68    48    49    1
    69    83    84    1
    70    87    84    1
    71    87    88    1
    72    60    61    1
    73    61    64    1
    74    73    74    1
    75    73    75    1
    76    56    57    1
    77    85    84    1
    78    85    90   am
    79    93    92    2
    80    90    91    1
    81    51    50    1
    82    49    50    1
    83    57    59   ar
    84    57    58   ar
    85    92    91    1
    86    64    65    1
    87    91    94    1
    88    96    95   ar
    89    94    95    1
    90    65    66    1
    91    95    97   ar
    92   114   112   am
    93   132   130    1
    94    67    66   ar
    95    66    68   ar
    96   121   119    1
    97   129   130    2
    98   129   128    1
    99   127   128    1
   100   127   126    1
   101   130   131    1
   102   112   111    1
   103   112   113    2
   104   120   119    1
   105   119   116    1
   106   123   126    1
   107   123   124    1
   108   123   122    1
   109   111   108    1
   110   124   125    2
   111   110   109    2
   112   116   117    1
   113   116   115    1
   114   108   109    1
   115   108   107    1
   116   103   102    1
   117   103   104    1
   118   105   104    2
   119   117   118    2
   120   102    99    1
   121   104   106   am
   122    99   100    1
   123    99    98    1
   124   100   101    2
