@<TRIPOS>MOLECULE
tmp/2iwhB00.pdb
 166 159 0 0 0
SMALL
GASTEIGER

@<TRIPOS>ATOM
      1  N        265.5900  -67.7180  108.9120 N.3     1  HIS1       -0.1241
      2  CA       266.3590  -68.5480  109.8860 C.3     1  HIS1        0.1621
      3  C        267.8350  -68.4730  109.5270 C.2     1  HIS1        0.2264
      4  O        268.3330  -67.4500  109.0540 O.2     1  HIS1       -0.2867
      5  CB       265.9150  -70.0130  109.7950 C.3     1  HIS1        0.0745
      6  CG       265.7200  -70.6720  111.1250 C.ar    1  HIS1        0.0817
      7  ND1      266.5110  -70.3870  112.2190 N.ar    1  HIS1       -0.2268
      8  CD2      264.8320  -71.6090  111.5320 C.ar    1  HIS1        0.1154
      9  CE1      266.1150  -71.1210  113.2430 C.ar    1  HIS1        0.1986
     10  NE2      265.0990  -71.8720  112.8540 N.ar    1  HIS1       -0.2212
     11  N        264.5460  -87.6020  111.7740 N.3    43  ASN43      -0.1240
     12  CA       264.6550  -86.1660  112.0490 C.3    43  ASN43       0.1653
     13  C        265.5490  -85.6020  110.9480 C.2    43  ASN43       0.2266
     14  O        266.6610  -85.1430  111.2120 O.2    43  ASN43      -0.2867
     15  CB       265.3050  -85.9320  113.4180 C.3    43  ASN43       0.1155
     16  CG       264.5700  -86.6420  114.5540 C.2    43  ASN43       0.2627
     17  OD1      263.4030  -86.3710  114.8250 O.2    43  ASN43      -0.2716
     18  ND2      265.2560  -87.5550  115.2210 N.am   43  ASN43      -0.0877
     19  N        264.8030  -82.9810  108.4580 N.3    45  ILE45      -0.1231
     20  CA       264.7860  -81.5990  107.9790 C.3    45  ILE45       0.1692
     21  C        264.4820  -80.6240  109.0840 C.2    45  ILE45       0.2592
     22  O        263.5940  -80.8570  109.8890 O.2    45  ILE45      -0.2718
     23  CB       263.7660  -81.4300  106.8360 C.3    45  ILE45       0.0266
     24  CG1      264.2290  -82.2470  105.6210 C.3    45  ILE45       0.0019
     25  CG2      263.5860  -79.9610  106.5070 C.3    45  ILE45       0.0020
     26  CD1      263.1180  -82.6020  104.6660 C.3    45  ILE45       0.0001
     27  N        265.2240  -79.5250  109.1140 N.am   46  GLU46      -0.1966
     28  CA       265.0570  -78.5180  110.1540 C.3    46  GLU46       0.1733
     29  C        263.9210  -77.5690  109.8630 C.2    46  GLU46       0.2616
     30  O        264.0080  -76.7580  108.9440 O.2    46  GLU46      -0.2715
     31  CB       266.3470  -77.7120  110.3250 C.3    46  GLU46       0.0429
     32  CG       266.3390  -76.7680  111.5230 C.3    46  GLU46       0.1163
     33  CD       266.3640  -77.5070  112.8690 C.2    46  GLU46       0.3649
     34  OE1      266.4260  -78.7700  112.8720 O.co2  46  GLU46      -0.2457
     35  OE2      266.3270  -76.8180  113.9230 O.co2  46  GLU46      -0.2457
     36  N        262.8550  -77.6940  110.6510 N.am   47  HIS47      -0.1959
     37  CA       261.6770  -76.8410  110.5460 C.3    47  HIS47       0.1787
     38  C        261.1460  -76.6290  109.1360 C.2    47  HIS47       0.2620
     39  O        260.8820  -75.5040  108.7220 O.2    47  HIS47      -0.2715
     40  CB       261.9660  -75.4810  111.1840 C.3    47  HIS47       0.0785
     41  CG       262.1750  -75.5340  112.6660 C.ar   47  HIS47       0.0821
     42  ND1      261.2290  -76.0360  113.5320 N.ar   47  HIS47      -0.2267
     43  CD2      263.1940  -75.0950  113.4380 C.ar   47  HIS47       0.1154
     44  CE1      261.6540  -75.8970  114.7730 C.ar   47  HIS47       0.1986
     45  NE2      262.8450  -75.3290  114.7440 N.ar   47  HIS47      -0.2212
     46  N        260.9780  -77.7120  108.3940 N.am   48  ASP48      -0.1971
     47  CA       260.4510  -77.5910  107.0450 C.3    48  ASP48       0.1709
     48  C        260.0240  -78.9590  106.4830 C.2    48  ASP48       0.2293
     49  O        260.0610  -79.9720  107.1890 O.2    48  ASP48      -0.2864
     50  CB       261.4950  -76.9360  106.1420 C.3    48  ASP48       0.1436
     51  CG       260.8630  -76.1170  105.0540 C.2    48  ASP48       0.3671
     52  OD1      259.8450  -76.5860  104.5050 O.co2  48  ASP48      -0.2456
     53  OD2      261.3660  -75.0130  104.7460 O.co2  48  ASP48      -0.2456
     54  N        255.9890  -85.2510  111.0340 N.3    86  SER86      -0.1217
     55  CA       256.5370  -84.2730  110.1050 C.3    86  SER86       0.1889
     56  C        256.1240  -84.5520  108.6720 C.2    86  SER86       0.2288
     57  O        256.2360  -83.6970  107.7960 O.2    86  SER86      -0.2866
     58  CB       258.0460  -84.3000  110.1950 C.3    86  SER86       0.2089
     59  OG       258.4300  -83.9780  111.5110 O.3    86  SER86      -0.2183
     60  N        253.9280  -81.4170  117.9950 N.3   392  PRO392     -0.2116
     61  CA       254.8370  -81.9580  116.9610 C.3   392  PRO392      0.1372
     62  C        254.5590  -81.5380  115.4950 C.2   392  PRO392      0.2244
     63  O        255.4780  -81.4540  114.6920 O.2   392  PRO392     -0.2868
     64  CB       254.7750  -83.4820  117.1900 C.3   392  PRO392      0.0268
     65  CG       253.5190  -83.6920  117.9990 C.3   392  PRO392      0.0207
     66  CD       253.4570  -82.4870  118.8970 C.3   392  PRO392      0.0892
     67  N        255.7570  -77.6080  115.0920 N.3   395  THR395     -0.1203
     68  CA       257.1670  -77.2580  114.9240 C.3   395  THR395      0.1994
     69  C        257.6940  -77.5310  113.5090 C.2   395  THR395      0.2617
     70  O        258.8660  -77.3170  113.2140 O.2   395  THR395     -0.2717
     71  CB       258.0870  -77.9070  116.0160 C.3   395  THR395      0.1784
     72  OG1      257.9340  -79.3310  116.0520 O.3   395  THR395     -0.2211
     73  CG2      257.7390  -77.3260  117.3590 C.3   395  THR395      0.0376
     74  N        256.8130  -77.9800  112.6210 N.am  396  ILE396     -0.1979
     75  CA       257.2000  -78.2090  111.2310 C.3   396  ILE396      0.1595
     76  C        257.5420  -76.8430  110.6390 C.2   396  ILE396      0.2287
     77  O        258.4720  -76.7070  109.8550 O.2   396  ILE396     -0.2864
     78  CB       256.0350  -78.8340  110.4190 C.3   396  ILE396      0.0276
     79  CG1      255.8570  -80.2940  110.8060 C.3   396  ILE396      0.0022
     80  CG2      256.3070  -78.7360  108.9440 C.3   396  ILE396      0.0022
     81  CD1      254.6840  -80.9630  110.1430 C.3   396  ILE396      0.0001
     82  N        258.9100  -72.3230  115.8080 N.3   399  HIS399     -0.1226
     83  CA       259.8640  -72.6870  116.8330 C.3   399  HIS399      0.1752
     84  C        259.0770  -73.2240  117.9790 C.2   399  HIS399      0.2596
     85  O        257.9530  -72.7950  118.2080 O.2   399  HIS399     -0.2718
     86  CB       260.6580  -71.4840  117.2750 C.3   399  HIS399      0.0759
     87  CG       261.7540  -71.1340  116.3310 C.ar  399  HIS399      0.0818
     88  ND1      262.8230  -71.9720  116.0980 N.ar  399  HIS399     -0.2268
     89  CD2      261.9290  -70.0620  115.5260 C.ar  399  HIS399      0.1154
     90  CE1      263.6110  -71.4300  115.1900 C.ar  399  HIS399      0.1986
     91  NE2      263.0900  -70.2710  114.8250 N.ar  399  HIS399     -0.2212
     92  N        259.6780  -74.1440  118.7130 N.am  400  GLU400     -0.1965
     93  CA       259.0020  -74.7740  119.8210 C.3   400  GLU400      0.1733
     94  C        258.3270  -73.8230  120.8000 C.2   400  GLU400      0.2616
     95  O        257.1480  -73.9890  121.1110 O.2   400  GLU400     -0.2715
     96  CB       259.9670  -75.6830  120.5680 C.3   400  GLU400      0.0429
     97  CG       259.2720  -76.6420  121.5040 C.3   400  GLU400      0.1163
     98  CD       260.2230  -77.3320  122.4370 C.2   400  GLU400      0.3649
     99  OE1      261.0960  -78.0700  121.9430 O.co2 400  GLU400     -0.2457
    100  OE2      260.0950  -77.1380  123.6650 O.co2 400  GLU400     -0.2457
    101  N        259.0480  -72.8270  121.2960 N.am  401  LYS401     -0.1977
    102  CA       258.4320  -71.9170  122.2540 C.3   401  LYS401      0.1596
    103  C        257.1990  -71.1850  121.7140 C.2   401  LYS401      0.2287
    104  O        256.1990  -71.0470  122.4220 O.2   401  LYS401     -0.2864
    105  CB       259.4460  -70.8990  122.7730 C.3   401  LYS401      0.0298
    106  CG       258.8370  -69.9980  123.8110 C.3   401  LYS401      0.0038
    107  CD       259.8510  -69.1450  124.5410 C.3   401  LYS401      0.0206
    108  CE       259.1170  -68.1920  125.4970 C.3   401  LYS401      0.1093
    109  NZ       258.0630  -68.8970  126.3130 N.3   401  LYS401     -0.1314
    110  N        268.1390  -80.8170  112.2660 N.3   706  ASN706     -0.1240
    111  CA       267.8730  -82.1230  111.6990 C.3   706  ASN706      0.1653
    112  C        268.7350  -82.2590  110.4480 C.2   706  ASN706      0.2266
    113  O        269.2200  -81.2590  109.9220 O.2   706  ASN706     -0.2867
    114  CB       266.3950  -82.2650  111.3560 C.3   706  ASN706      0.1155
    115  CG       265.5290  -82.3430  112.5850 C.2   706  ASN706      0.2627
    116  OD1      266.0350  -82.3880  113.6960 O.2   706  ASN706     -0.2716
    117  ND2      264.2220  -82.3680  112.3960 N.am  706  ASN706     -0.0877
    118  N        263.8240  -86.1680  120.9320 N.3   925  GLU925     -0.1245
    119  CA       263.2260  -84.8490  121.0710 C.3   925  GLU925      0.1567
    120  C        262.1020  -84.7550  122.0830 C.2   925  GLU925      0.2260
    121  O        261.0140  -84.2860  121.7430 O.2   925  GLU925     -0.2867
    122  CB       262.6770  -84.3840  119.7260 C.3   925  GLU925      0.0388
    123  CG       263.6970  -84.2520  118.6290 C.3   925  GLU925      0.1160
    124  CD       264.6450  -83.1070  118.8400 C.2   925  GLU925      0.3649
    125  OE1      264.3690  -82.2480  119.6990 O.co2 925  GLU925     -0.2457
    126  OE2      265.6670  -83.0620  118.1290 O.co2 925  GLU925     -0.2457
    127  N        261.2850  -82.6450  124.3330 N.3   927  THR927     -0.1203
    128  CA       260.6780  -81.3300  124.5260 C.3   927  THR927      0.1994
    129  C        259.6670  -80.9350  123.4530 C.2   927  THR927      0.2617
    130  O        258.9030  -79.9930  123.6440 O.2   927  THR927     -0.2717
    131  CB       261.7590  -80.2480  124.5970 C.3   927  THR927      0.1784
    132  OG1      262.4030  -80.1320  123.3180 O.3   927  THR927     -0.2211
    133  CG2      262.7970  -80.6170  125.6490 C.3   927  THR927      0.0376
    134  N        259.6620  -81.6560  122.3350 N.am  928  ASN928     -0.1974
    135  CA       258.7600  -81.3750  121.2220 C.3   928  ASN928      0.1688
    136  C        257.2880  -81.6740  121.5730 C.2   928  ASN928      0.2292
    137  O        256.3910  -81.0810  120.9850 O.2   928  ASN928     -0.2864
    138  CB       259.1900  -82.2180  120.0090 C.3   928  ASN928      0.1181
    139  CG       258.6590  -81.6770  118.6740 C.2   928  ASN928      0.2629
    140  OD1      257.6370  -80.9830  118.6320 O.2   928  ASN928     -0.2716
    141  ND2      259.3490  -82.0140  117.5750 N.am  928  ASN928     -0.0877
    142  N        267.1470  -80.2360  120.6520 N.3   954  HIS954     -0.1226
    143  CA       267.6050  -78.9710  120.0910 C.3   954  HIS954      0.1752
    144  C        267.7320  -78.0030  121.2660 C.2   954  HIS954      0.2596
    145  O        268.4460  -77.0010  121.1990 O.2   954  HIS954     -0.2718
    146  CB       266.5990  -78.4040  119.0720 C.3   954  HIS954      0.0759
    147  CG       266.5190  -79.1730  117.7850 C.ar  954  HIS954      0.0818
    148  ND1      266.4050  -78.5570  116.5570 N.ar  954  HIS954     -0.2268
    149  CD2      266.4780  -80.5040  117.5390 C.ar  954  HIS954      0.1154
    150  CE1      266.2980  -79.4740  115.6130 C.ar  954  HIS954      0.1986
    151  NE2      266.3380  -80.6650  116.1810 N.ar  954  HIS954     -0.2212
    152  N        267.0560  -78.3260  122.3580 N.am  955  SER955     -0.1952
    153  CA       267.0660  -77.4680  123.5280 C.3   955  SER955      0.1924
    154  C        268.2890  -77.5590  124.4250 C.2   955  SER955      0.2314
    155  O        268.4290  -78.5130  125.1810 O.2   955  SER955     -0.2863
    156  CB       265.8250  -77.7520  124.3660 C.3   955  SER955      0.2116
    157  OG       265.8420  -76.9830  125.5490 O.3   955  SER955     -0.2180
    158  N        268.7660  -75.6830  126.7720 N.3   957  GLU957     -0.1245
    159  CA       268.2040  -75.4210  128.0750 C.3   957  GLU957      0.1567
    160  C        267.8790  -76.7330  128.8100 C.2   957  GLU957      0.2260
    161  O        268.3070  -76.9200  129.9440 O.2   957  GLU957     -0.2867
    162  CB       266.9700  -74.5150  127.9150 C.3   957  GLU957      0.0388
    163  CG       267.2030  -73.2700  126.9780 C.3   957  GLU957      0.1160
    164  CD       266.8720  -73.5090  125.4770 C.2   957  GLU957      0.3649
    165  OE1      265.6730  -73.5360  125.1170 O.co2 957  GLU957     -0.2457
    166  OE2      267.8060  -73.6660  124.6540 O.co2 957  GLU957     -0.2457
@<TRIPOS>BOND
     1    52    51   ar
     2    26    24    1
     3    53    51   ar
     4    51    50    1
     5    24    23    1
     6    50    47    1
     7    48    47    1
     8    48    49    2
     9    25    23    1
    10    23    20    1
    11    47    46    1
    12    57    56    2
    13    20    19    1
    14    20    21    1
    15    46    38   am
    16    56    55    1
    17    39    38    2
    18     1     2    1
    19    80    78    1
    20    30    29    2
    21     4     3    2
    22    21    27   am
    23    21    22    2
    24    27    28    1
    25    38    37    1
    26     3     2    1
    27     5     2    1
    28     5     6    1
    29    77    76    2
    30    29    28    1
    31    29    36   am
    32   113   112    2
    33    55    58    1
    34    55    54    1
    35    81    79    1
    36    28    31    1
    37    58    59    1
    38    31    32    1
    39    78    79    1
    40    78    75    1
    41   112   111    1
    42    37    36    1
    43    37    40    1
    44    76    75    1
    45    13    14    2
    46    13    12    1
    47     6     8   ar
    48     6     7   ar
    49    40    41    1
    50    75    74    1
    51   114   111    1
    52   114   115    1
    53    32    33    1
    54     8    10   ar
    55   111   110    1
    56    11    12    1
    57    12    15    1
    58     7     9   ar
    59   117   115   am
    60   115   116    2
    61    74    69   am
    62    41    43   ar
    63    41    42   ar
    64    10     9   ar
    65    33    34   ar
    66    33    35   ar
    67    70    69    2
    68    15    16    1
    69    43    45   ar
    70    69    68    1
    71    42    44   ar
    72    16    17    2
    73    16    18   am
    74    63    62    2
    75    45    44   ar
    76    91    90   ar
    77    91    89   ar
    78    68    67    1
    79    68    71    1
    80    90    88   ar
    81    62    61    1
    82    89    87   ar
    83   150   151   ar
    84   150   148   ar
    85    82    83    1
    86    71    72    1
    87    71    73    1
    88    88    87   ar
    89   151   149   ar
    90    87    86    1
    91   148   147   ar
    92    83    86    1
    93    83    84    1
    94    61    64    1
    95    61    60    1
    96    64    65    1
    97   149   147   ar
    98   141   139   am
    99   147   146    1
   100    84    85    2
   101    84    92   am
   102    60    66    1
   103    65    66    1
   104   126   124   ar
   105   123   124    1
   106   123   122    1
   107   140   139    2
   108   139   138    1
   109    92    93    1
   110   124   125   ar
   111   146   143    1
   112   122   119    1
   113    93    96    1
   114    93    94    1
   115   138   135    1
   116   143   142    1
   117   143   144    1
   118    96    97    1
   119    94    95    2
   120    94   101   am
   121   118   119    1
   122   137   136    2
   123   119   120    1
   124   145   144    2
   125   135   136    1
   126   135   134    1
   127   144   152   am
   128   101   102    1
   129    97    98    1
   130   103   102    1
   131   103   104    2
   132   121   120    2
   133    99    98   ar
   134   102   105    1
   135   134   129   am
   136   152   153    1
   137    98   100   ar
   138   105   106    1
   139   132   131    1
   140   129   130    2
   141   129   128    1
   142   153   156    1
   143   153   154    1
   144   106   107    1
   145   127   128    1
   146   156   157    1
   147   154   155    2
   148   128   131    1
   149   107   108    1
   150   131   133    1
   151   166   164   ar
   152   165   164   ar
   153   164   163    1
   154   108   109    1
   155   158   159    1
   156   163   162    1
   157   162   159    1
   158   159   160    1
   159   160   161    2
