@<TRIPOS>MOLECULE
tmp/2iwiB00.pdb
 134 124 0 0 0
SMALL
GASTEIGER

@<TRIPOS>ATOM
      1  N        -13.9290   22.7160   13.3610 N.3    17  LEU17      -0.1231
      2  CA       -12.5790   22.3040   13.0080 C.3    17  LEU17       0.1693
      3  C        -11.5770   23.3500   13.4780 C.2    17  LEU17       0.2592
      4  O        -10.6050   23.0330   14.1740 O.2    17  LEU17      -0.2718
      5  CB       -12.4730   22.1100   11.5050 C.3    17  LEU17       0.0284
      6  CG       -13.5200   21.1870   10.8950 C.3    17  LEU17       0.0019
      7  CD1      -13.2010   20.9630    9.4420 C.3    17  LEU17       0.0001
      8  CD2      -13.5600   19.8710   11.6380 C.3    17  LEU17       0.0001
      9  N        -11.8140   24.6020   13.0910 N.am   18  GLY18      -0.1957
     10  CA       -10.9990   25.7240   13.5570 C.3    18  GLY18       0.1869
     11  C        -11.7180   27.0530   13.4260 C.2    18  GLY18       0.2309
     12  O        -12.5800   27.2290   12.5600 O.2    18  GLY18      -0.2863
     13  N        -10.0420   34.1870    9.6450 N.3    22  PHE22      -0.1241
     14  CA       -10.4590   33.5440    8.4010 C.3    22  PHE22       0.1605
     15  C        -11.9400   33.0850    8.4010 C.2    22  PHE22       0.2264
     16  O        -12.3910   32.4120    7.4560 O.2    22  PHE22      -0.2867
     17  CB        -9.5460   32.3390    8.1050 C.3    22  PHE22       0.0534
     18  CG        -9.5720   31.2660    9.1700 C.ar   22  PHE22      -0.0203
     19  CD1      -10.5730   30.2960    9.1810 C.ar   22  PHE22      -0.0042
     20  CD2       -8.5890   31.2210   10.1610 C.ar   22  PHE22      -0.0042
     21  CE1      -10.5980   29.3000   10.1640 C.ar   22  PHE22      -0.0003
     22  CE2       -8.6090   30.2330   11.1490 C.ar   22  PHE22      -0.0003
     23  CZ        -9.6170   29.2680   11.1450 C.ar   22  PHE22      -0.0000
     24  N        -14.6460   27.3990   10.2270 N.3    25  VAL25      -0.1245
     25  CA       -14.8020   26.2160    9.3830 C.3    25  VAL25       0.1561
     26  C        -15.3750   25.0580   10.1920 C.2    25  VAL25       0.2260
     27  O        -14.7300   24.5660   11.1070 O.2    25  VAL25      -0.2867
     28  CB       -13.4240   25.7860    8.8110 C.3    25  VAL25       0.0252
     29  CG1      -13.5460   24.6530    7.8270 C.3    25  VAL25       0.0019
     30  CG2      -12.7370   26.9670    8.1530 C.3    25  VAL25       0.0019
     31  N        -16.5310   20.6940    4.0720 N.3    38  ALA38      -0.1245
     32  CA       -16.2050   21.7020    5.0810 C.3    38  ALA38       0.1562
     33  C        -17.0260   22.9460    4.7930 C.2    38  ALA38       0.2260
     34  O        -17.1010   23.3850    3.6560 O.2    38  ALA38      -0.2867
     35  CB       -14.7310   22.0320    5.0560 C.3    38  ALA38       0.0290
     36  N        -17.2220   26.7270    5.5500 N.3    40  LYS40      -0.1245
     37  CA       -16.5190   27.9060    6.0430 C.3    40  LYS40       0.1561
     38  C        -17.5300   29.0460    6.1610 C.2    40  LYS40       0.2260
     39  O        -18.1650   29.4160    5.1770 O.2    40  LYS40      -0.2867
     40  CB       -15.3740   28.2760    5.0920 C.3    40  LYS40       0.0271
     41  CG       -14.4580   29.4030    5.5700 C.3    40  LYS40       0.0035
     42  CD       -13.4920   29.8000    4.4690 C.3    40  LYS40       0.0206
     43  CE       -12.5980   30.9470    4.9400 C.3    40  LYS40       0.1093
     44  NZ       -11.9140   31.6080    3.8250 N.3    40  LYS40      -0.1314
     45  N         -8.1740   23.2430   -3.0420 N.3    66  ILE66      -0.1245
     46  CA        -9.4920   22.8290   -2.5890 C.3    66  ILE66       0.1561
     47  C        -10.5430   23.5010   -3.4540 C.2    66  ILE66       0.2260
     48  O        -10.3860   24.6610   -3.8390 O.2    66  ILE66      -0.2867
     49  CB        -9.7160   23.1770   -1.0990 C.3    66  ILE66       0.0252
     50  CG1       -9.0670   22.1200   -0.2070 C.3    66  ILE66       0.0019
     51  CG2      -11.1810   23.1910   -0.7540 C.3    66  ILE66       0.0019
     52  CD1       -9.7680   20.7610   -0.2270 C.3    66  ILE66       0.0001
     53  N        -16.9860   23.7470    0.9200 N.3    78  LEU78      -0.1231
     54  CA       -15.7900   23.3380    0.1820 C.3    78  LEU78       0.1693
     55  C        -15.5490   21.8560    0.3990 C.2    78  LEU78       0.2592
     56  O        -16.0980   21.2710    1.3250 O.2    78  LEU78      -0.2718
     57  CB       -14.5720   24.1170    0.6870 C.3    78  LEU78       0.0284
     58  CG       -14.5430   25.6160    0.3690 C.3    78  LEU78       0.0019
     59  CD1      -14.3020   26.4570    1.6140 C.3    78  LEU78       0.0001
     60  CD2      -13.5040   25.9090   -0.7070 C.3    78  LEU78       0.0001
     61  N        -14.7070   21.2530   -0.4360 N.am   79  GLU79      -0.1966
     62  CA       -14.4010   19.8360   -0.2850 C.3    79  GLU79       0.1733
     63  C        -13.5240   19.6310    0.9400 C.2    79  GLU79       0.2616
     64  O        -12.7480   20.5110    1.3160 O.2    79  GLU79      -0.2715
     65  CB       -13.7840   19.2290   -1.5620 C.3    79  GLU79       0.0429
     66  CG       -12.2970   19.4870   -1.8140 C.3    79  GLU79       0.1163
     67  CD       -11.8350   18.9960   -3.1930 C.2    79  GLU79       0.3649
     68  OE1      -12.4430   18.0380   -3.7140 O.co2  79  GLU79      -0.2457
     69  OE2      -10.8670   19.5630   -3.7600 O.co2  79  GLU79      -0.2457
     70  N        -13.6760   18.4730    1.5710 N.am   80  ARG80      -0.1977
     71  CA       -13.0170   18.1700    2.8380 C.3    80  ARG80       0.1597
     72  C        -12.4290   16.7740    2.7350 C.2    80  ARG80       0.2287
     73  O        -13.1600   15.7930    2.8030 O.2    80  ARG80      -0.2864
     74  CB       -14.0670   18.2700    3.9600 C.3    80  ARG80       0.0334
     75  CG       -13.9710   17.3110    5.1360 C.3    80  ARG80       0.0492
     76  CD       -13.1810   17.8230    6.3100 C.3    80  ARG80       0.2205
     77  NE       -13.5450   17.0270    7.4830 N.pl3  80  ARG80      -0.0865
     78  CZ       -12.8150   16.8880    8.5880 C.cat  80  ARG80       0.5346
     79  NH1      -13.2800   16.1260    9.5720 N.pl3  80  ARG80       0.1354
     80  NH2      -11.6340   17.4930    8.7250 N.pl3  80  ARG80       0.1354
     81  N         -7.7210   14.6120    7.2050 N.3    84  ALA84      -0.1231
     82  CA        -6.9400   15.7960    6.8260 C.3    84  ALA84       0.1694
     83  C         -6.2660   16.4370    8.0330 C.2    84  ALA84       0.2592
     84  O         -6.6390   16.2040    9.1840 O.2    84  ALA84      -0.2718
     85  CB        -7.8190   16.8140    6.1090 C.3    84  ALA84       0.0304
     86  N         -5.2760   17.2640    7.7430 N.am   85  GLN85      -0.1966
     87  CA        -4.4890   17.9440    8.7540 C.3    85  GLN85       0.1733
     88  C         -3.6180   18.9790    8.0690 C.2    85  GLN85       0.2616
     89  O         -3.0470   18.7080    7.0150 O.2    85  GLN85      -0.2715
     90  CB        -3.6160   16.9270    9.4510 C.3    85  GLN85       0.0408
     91  CG        -2.3710   17.5010   10.0390 C.3    85  GLN85       0.0908
     92  CD        -1.8870   16.6810   11.1720 C.2    85  GLN85       0.2608
     93  OE1       -2.3920   16.8070   12.2750 O.2    85  GLN85      -0.2717
     94  NE2       -0.9080   15.8270   10.9170 N.am   85  GLN85      -0.0878
     95  N         -3.5110   20.1620    8.6530 N.am   86  ASP86      -0.1971
     96  CA        -2.7140   21.2190    8.0230 C.3    86  ASP86       0.1709
     97  C         -1.2340   21.0790    8.3780 C.2    86  ASP86       0.2293
     98  O         -0.8630   20.5790    9.4440 O.2    86  ASP86      -0.2864
     99  CB        -3.2340   22.6250    8.3920 C.3    86  ASP86       0.1436
    100  CG        -3.6460   22.7380    9.8620 C.2    86  ASP86       0.3671
    101  OD1       -3.0080   23.5210   10.6050 O.co2  86  ASP86      -0.2456
    102  OD2       -4.6050   22.0250   10.2670 O.co2  86  ASP86      -0.2456
    103  N         -2.1830   27.1360    5.6890 N.3   130  ASN130     -0.1240
    104  CA        -3.0070   27.1770    4.4830 C.3   130  ASN130      0.1653
    105  C         -2.6070   26.1490    3.4320 C.2   130  ASN130      0.2266
    106  O         -2.9360   26.2900    2.2610 O.2   130  ASN130     -0.2867
    107  CB        -2.9600   28.5860    3.8730 C.3   130  ASN130      0.1155
    108  CG        -3.5470   29.6380    4.7890 C.2   130  ASN130      0.2627
    109  OD1       -4.3900   29.3390    5.6380 O.2   130  ASN130     -0.2716
    110  ND2       -3.1040   30.8780    4.6260 N.am  130  ASN130     -0.0877
    111  N         -3.1880   22.0840    3.1520 N.3   132  LEU132     -0.1245
    112  CA        -3.8900   20.9870    3.8000 C.3   132  LEU132      0.1561
    113  C         -3.3390   19.6750    3.2940 C.2   132  LEU132      0.2260
    114  O         -3.2900   19.4380    2.0930 O.2   132  LEU132     -0.2867
    115  CB        -5.3990   21.0410    3.5500 C.3   132  LEU132      0.0270
    116  CG        -6.2420   20.0460    4.3660 C.3   132  LEU132      0.0019
    117  CD1       -6.2870   20.4520    5.8420 C.3   132  LEU132      0.0001
    118  CD2       -7.6630   19.9000    3.8210 C.3   132  LEU132      0.0001
    119  N         -5.5020   25.8720    0.6670 N.3   143  ILE143     -0.1231
    120  CA        -6.7940   26.2960    1.1900 C.3   143  ILE143      0.1692
    121  C         -6.8250   27.7950    1.5540 C.2   143  ILE143      0.2592
    122  O         -5.7760   28.4380    1.6650 O.2   143  ILE143     -0.2718
    123  CB        -7.2340   25.3720    2.3580 C.3   143  ILE143      0.0266
    124  CG1       -6.3490   25.5180    3.5940 C.3   143  ILE143      0.0019
    125  CG2       -7.1510   23.9480    1.9270 C.3   143  ILE143      0.0020
    126  CD1       -6.7900   24.6210    4.7460 C.3   143  ILE143      0.0001
    127  N         -8.0420   28.3350    1.6680 N.am  144  ASP144     -0.1974
    128  CA        -8.3210   29.7070    2.1420 C.3   144  ASP144      0.1709
    129  C         -7.8750   30.8430    1.2180 C.2   144  ASP144      0.2293
    130  O         -6.7510   31.3400    1.3010 O.2   144  ASP144     -0.2864
    131  CB        -7.7620   29.9340    3.5470 C.3   144  ASP144      0.1436
    132  CG        -8.4170   31.1230    4.2510 C.2   144  ASP144      0.3671
    133  OD1       -8.8490   32.0940    3.5740 O.co2 144  ASP144     -0.2456
    134  OD2       -8.5010   31.0740    5.4960 O.co2 144  ASP144     -0.2456
@<TRIPOS>BOND
     1    48    47    2
     2    69    67   ar
     3    68    67   ar
     4    47    46    1
     5    67    66    1
     6    45    46    1
     7    46    49    1
     8    66    65    1
     9    65    62    1
    10    49    51    1
    11    49    50    1
    12    60    58    1
    13    61    62    1
    14    61    55   am
    15    62    63    1
    16    52    50    1
    17    54    55    1
    18    54    57    1
    19    54    53    1
    20    58    57    1
    21    58    59    1
    22    55    56    2
    23   119   120    1
    24    63    64    2
    25    63    70   am
    26   120   121    1
    27   120   123    1
    28   129   130    2
    29   129   128    1
    30   121   122    2
    31   121   127   am
    32    70    71    1
    33   127   128    1
    34   125   123    1
    35   114   113    2
    36   128   131    1
    37   106   105    2
    38   123   124    1
    39    72    73    2
    40    72    71    1
    41    71    74    1
    42   111   112    1
    43   113   112    1
    44   105   104    1
    45   131   132    1
    46   115   112    1
    47   115   116    1
    48   133   132   ar
    49   124   126    1
    50    34    33    2
    51   118   116    1
    52    44    43    1
    53   107   104    1
    54   107   108    1
    55    74    75    1
    56    31    32    1
    57   132   134   ar
    58   116   117    1
    59    42    43    1
    60    42    41    1
    61   104   103    1
    62   110   108   am
    63   108   109    2
    64    33    32    1
    65    35    32    1
    66    40    41    1
    67    40    37    1
    68    75    76    1
    69    39    38    2
    70    36    37    1
    71    37    38    1
    72    85    82    1
    73    76    77    1
    74    82    81    1
    75    82    83    1
    76    89    88    2
    77    16    15    2
    78    77    78    2
    79    86    83   am
    80    86    87    1
    81    29    28    1
    82    96    97    1
    83    96    99    1
    84    96    95    1
    85    83    84    2
    86    88    95   am
    87    88    87    1
    88    17    14    1
    89    17    18    1
    90    30    28    1
    91    97    98    2
    92    99   100    1
    93    15    14    1
    94    14    13    1
    95    78    80    1
    96    78    79    1
    97    87    90    1
    98    28    25    1
    99    18    19   ar
   100    18    20   ar
   101    19    21   ar
   102    25    26    1
   103    25    24    1
   104     7     6    1
   105    90    91    1
   106   100   102   ar
   107   100   101   ar
   108    91    92    1
   109    20    22   ar
   110    21    23   ar
   111    26    27    2
   112     6     5    1
   113     6     8    1
   114    94    92   am
   115    23    22   ar
   116    92    93    2
   117     5     2    1
   118    12    11    2
   119     2     1    1
   120     2     3    1
   121     9     3   am
   122     9    10    1
   123    11    10    1
   124     3     4    2
