@<TRIPOS>MOLECULE
tmp/2iwsA00.pdb
 128 117 0 0 0
SMALL
GASTEIGER

@<TRIPOS>ATOM
      1  N         20.1370  -25.9930  -54.1070 N.3    34  LEU34      -0.1245
      2  CA        19.0650  -26.8490  -54.6080 C.3    34  LEU34       0.1561
      3  C         18.5630  -26.3610  -55.9640 C.2    34  LEU34       0.2260
      4  O         18.4210  -27.1470  -56.8980 O.2    34  LEU34      -0.2867
      5  CB        17.9240  -26.9510  -53.5900 C.3    34  LEU34       0.0270
      6  CG        18.3640  -27.4410  -52.2050 C.3    34  LEU34       0.0019
      7  CD1       17.1660  -27.7070  -51.3130 C.3    34  LEU34       0.0001
      8  CD2       19.2400  -28.6860  -52.3270 C.3    34  LEU34       0.0001
      9  N         21.0640  -27.5140  -58.6020 N.3    37  ASN37      -0.1225
     10  CA        20.8850  -28.8860  -59.0590 C.3    37  ASN37       0.1785
     11  C         19.6240  -29.0270  -59.8960 C.2    37  ASN37       0.2597
     12  O         19.6020  -29.7430  -60.8970 O.2    37  ASN37      -0.2718
     13  CB        20.8050  -29.8490  -57.8790 C.3    37  ASN37       0.1169
     14  CG        22.0370  -29.8160  -57.0180 C.2    37  ASN37       0.2627
     15  OD1       22.0730  -30.4310  -55.9540 O.2    37  ASN37      -0.2716
     16  ND2       23.0560  -29.0980  -57.4670 N.am   37  ASN37      -0.0877
     17  N         18.5690  -28.3440  -59.4650 N.am   38  ALA38      -0.1979
     18  CA        17.3090  -28.3260  -60.1950 C.3    38  ALA38       0.1597
     19  C         17.5440  -27.8460  -61.6150 C.2    38  ALA38       0.2287
     20  O         17.1590  -28.5070  -62.5750 O.2    38  ALA38      -0.2864
     21  CB        16.3000  -27.4310  -59.4920 C.3    38  ALA38       0.0319
     22  N         20.3380  -27.7360  -63.2170 N.3    40  ASP40      -0.1225
     23  CA        21.2030  -28.6820  -63.9090 C.3    40  ASP40       0.1805
     24  C         20.3880  -29.8610  -64.4130 C.2    40  ASP40       0.2597
     25  O         20.5050  -30.2610  -65.5680 O.2    40  ASP40      -0.2718
     26  CB        22.3250  -29.1740  -62.9940 C.3    40  ASP40       0.1424
     27  CG        23.2700  -28.0620  -62.5840 C.2    40  ASP40       0.3668
     28  OD1       23.4860  -27.1280  -63.3890 O.co2  40  ASP40      -0.2456
     29  OD2       23.8020  -28.1250  -61.4520 O.co2  40  ASP40      -0.2456
     30  N         19.5530  -30.4080  -63.5310 N.am   41  ALA41      -0.1979
     31  CA        18.6990  -31.5330  -63.8740 C.3    41  ALA41       0.1597
     32  C         17.7480  -31.1800  -65.0100 C.2    41  ALA41       0.2287
     33  O         17.3080  -32.0560  -65.7570 O.2    41  ALA41      -0.2864
     34  CB        17.9190  -31.9870  -62.6580 C.3    41  ALA41       0.0319
     35  N         19.9010  -31.2310  -68.4390 N.3    44  LYS44      -0.1245
     36  CA        20.1190  -32.5860  -68.9330 C.3    44  LYS44       0.1561
     37  C         18.9370  -33.1440  -69.7150 C.2    44  LYS44       0.2260
     38  O         19.1180  -33.8820  -70.6770 O.2    44  LYS44      -0.2867
     39  CB        20.4830  -33.5270  -67.7820 C.3    44  LYS44       0.0271
     40  CG        21.9630  -33.5230  -67.4050 C.3    44  LYS44       0.0035
     41  CD        22.3750  -32.2260  -66.7370 C.3    44  LYS44       0.0206
     42  CE        23.8780  -32.1620  -66.5100 C.3    44  LYS44       0.1093
     43  NZ        24.3680  -33.2170  -65.5770 N.3    44  LYS44      -0.1314
     44  N         11.3880  -29.6390  -59.6680 N.3    79  ASP79      -0.1239
     45  CA        11.8600  -29.3200  -61.0040 C.3    79  ASP79       0.1674
     46  C         11.3580  -30.3950  -61.9580 C.2    79  ASP79       0.2266
     47  O         11.3170  -31.5710  -61.6100 O.2    79  ASP79      -0.2867
     48  CB        13.3930  -29.1920  -61.0470 C.3    79  ASP79       0.1410
     49  CG        14.1090  -30.5360  -60.9960 C.2    79  ASP79       0.3668
     50  OD1       14.7500  -30.8440  -59.9710 O.co2  79  ASP79      -0.2456
     51  OD2       14.0490  -31.2830  -61.9880 O.co2  79  ASP79      -0.2456
     52  N         15.1340  -34.1950  -65.5420 N.3    82  ILE82      -0.1231
     53  CA        15.2560  -35.5330  -66.1150 C.3    82  ILE82       0.1692
     54  C         14.8410  -36.6470  -65.1540 C.2    82  ILE82       0.2593
     55  O         14.5210  -37.7530  -65.5790 O.2    82  ILE82      -0.2718
     56  CB        16.6950  -35.7860  -66.6130 C.3    82  ILE82       0.0266
     57  CG1       16.7910  -37.1220  -67.3530 C.3    82  ILE82       0.0019
     58  CG2       17.6800  -35.7130  -65.4540 C.3    82  ILE82       0.0020
     59  CD1       18.0770  -37.2980  -68.1070 C.3    82  ILE82       0.0001
     60  N         14.8410  -36.3540  -63.8630 N.am   83  GLY83      -0.1942
     61  CA        14.4410  -37.3360  -62.8760 C.3    83  GLY83       0.2014
     62  C         15.4960  -38.4030  -62.6630 C.2    83  GLY83       0.2638
     63  O         16.5160  -38.4230  -63.3500 O.2    83  GLY83      -0.2714
     64  N         15.2440  -39.2860  -61.7050 N.am   84  MET84      -0.1976
     65  CA        16.1750  -40.3540  -61.3600 C.3    84  MET84       0.1605
     66  C         15.4340  -41.6640  -61.1590 C.2    84  MET84       0.2287
     67  O         14.3410  -41.6880  -60.5990 O.2    84  MET84      -0.2864
     68  CB        16.9350  -40.0090  -60.0780 C.3    84  MET84       0.0413
     69  CG        17.8890  -38.8400  -60.2100 C.3    84  MET84       0.0598
     70  SD        18.5300  -38.3270  -58.6090 S.3    84  MET84      -0.1393
     71  CE        17.0960  -37.5080  -57.9190 C.3    84  MET84       0.0692
     72  N         23.4150  -41.5920  -56.9390 N.3    92  ASN92      -0.1225
     73  CA        23.6120  -40.1500  -56.8240 C.3    92  ASN92       0.1785
     74  C         23.6210  -39.6300  -55.3890 C.2    92  ASN92       0.2597
     75  O         24.5370  -38.9140  -54.9840 O.2    92  ASN92      -0.2718
     76  CB        22.5510  -39.4020  -57.6300 C.3    92  ASN92       0.1169
     77  CG        22.6480  -39.6690  -59.1180 C.2    92  ASN92       0.2627
     78  OD1       21.9950  -38.9970  -59.9220 O.2    92  ASN92      -0.2716
     79  ND2       23.4640  -40.6490  -59.4960 N.am   92  ASN92      -0.0877
     80  N         22.6010  -39.9990  -54.6220 N.am   93  LEU93      -0.1980
     81  CA        22.4260  -39.4470  -53.2870 C.3    93  LEU93       0.1596
     82  C         23.0710  -40.3060  -52.2060 C.2    93  LEU93       0.2287
     83  O         22.9770  -39.9940  -51.0190 O.2    93  LEU93      -0.2864
     84  CB        20.9360  -39.2590  -52.9860 C.3    93  LEU93       0.0297
     85  CG        20.1440  -38.5080  -54.0590 C.3    93  LEU93       0.0022
     86  CD1       18.6570  -38.5040  -53.7260 C.3    93  LEU93       0.0001
     87  CD2       20.6810  -37.0900  -54.2280 C.3    93  LEU93       0.0001
     88  N         28.2300  -41.3360  -55.0880 N.3    96  ILE96      -0.1245
     89  CA        29.1570  -40.4230  -55.7530 C.3    96  ILE96       0.1561
     90  C         29.3770  -39.0640  -55.0680 C.2    96  ILE96       0.2260
     91  O         28.4300  -38.3530  -54.7270 O.2    96  ILE96      -0.2867
     92  CB        28.7550  -40.1880  -57.2260 C.3    96  ILE96       0.0252
     93  CG1       27.3450  -39.6040  -57.3060 C.3    96  ILE96       0.0019
     94  CG2       28.8580  -41.4830  -58.0270 C.3    96  ILE96       0.0019
     95  CD1       26.8300  -39.4630  -58.7100 C.3    96  ILE96       0.0001
     96  N         23.7850  -30.5550  -52.6540 N.3   121  PHE121     -0.1241
     97  CA        22.5430  -31.2090  -52.2670 C.3   121  PHE121      0.1605
     98  C         22.4610  -31.3540  -50.7560 C.2   121  PHE121      0.2264
     99  O         21.4060  -31.1430  -50.1600 O.2   121  PHE121     -0.2867
    100  CB        22.4240  -32.5900  -52.9260 C.3   121  PHE121      0.0534
    101  CG        21.3960  -33.4800  -52.2830 C.ar  121  PHE121     -0.0203
    102  CD1       20.0460  -33.3100  -52.5530 C.ar  121  PHE121     -0.0042
    103  CD2       21.7780  -34.4830  -51.4080 C.ar  121  PHE121     -0.0042
    104  CE1       19.0950  -34.1260  -51.9570 C.ar  121  PHE121     -0.0003
    105  CE2       20.8340  -35.3020  -50.8080 C.ar  121  PHE121     -0.0003
    106  CZ        19.4890  -35.1240  -51.0840 C.ar  121  PHE121     -0.0000
    107  N         13.3020  -37.1520  -51.0360 N.3   133  VAL133     -0.1245
    108  CA        13.4760  -36.8870  -52.4520 C.3   133  VAL133      0.1561
    109  C         12.5700  -37.8010  -53.2560 C.2   133  VAL133      0.2260
    110  O         12.7650  -39.0080  -53.2830 O.2   133  VAL133     -0.2867
    111  CB        14.9330  -37.0660  -52.9050 C.3   133  VAL133      0.0252
    112  CG1       15.0240  -37.0640  -54.4220 C.3   133  VAL133      0.0019
    113  CG2       15.8010  -35.9590  -52.3190 C.3   133  VAL133      0.0019
    114  N         11.7830  -34.1760  -60.2380 N.3   168  THR168     -0.1218
    115  CA        12.1840  -34.4650  -58.8690 C.3   168  THR168      0.1862
    116  C         11.6140  -33.4320  -57.9050 C.2   168  THR168      0.2287
    117  O         11.5690  -32.2420  -58.2150 O.2   168  THR168     -0.2866
    118  CB        13.7330  -34.4820  -58.7380 C.3   168  THR168      0.1770
    119  OG1       14.2730  -35.5740  -59.4940 O.3   168  THR168     -0.2211
    120  CG2       14.1660  -34.6170  -57.2840 C.3   168  THR168      0.0375
    121  N         12.2380  -32.1920  -53.8900 N.3   170  LEU170     -0.1245
    122  CA        12.9110  -32.2890  -52.6060 C.3   170  LEU170      0.1561
    123  C         11.9690  -31.7940  -51.5240 C.2   170  LEU170      0.2260
    124  O         11.7570  -30.5870  -51.3800 O.2   170  LEU170     -0.2867
    125  CB        14.2050  -31.4880  -52.5920 C.3   170  LEU170      0.0270
    126  CG        15.4760  -32.1680  -53.1020 C.3   170  LEU170      0.0019
    127  CD1       15.2860  -32.7390  -54.5000 C.3   170  LEU170      0.0001
    128  CD2       16.6400  -31.1870  -53.0730 C.3   170  LEU170      0.0001
@<TRIPOS>BOND
     1    38    37    2
     2    37    36    1
     3    36    35    1
     4    36    39    1
     5    59    57    1
     6    39    40    1
     7    40    41    1
     8    57    56    1
     9    41    42    1
    10    56    53    1
    11    56    58    1
    12    42    43    1
    13    53    52    1
    14    53    54    1
    15    33    32    2
    16    55    54    2
    17    25    24    2
    18    54    60   am
    19    32    31    1
    20    24    23    1
    21    24    30   am
    22    23    22    1
    23    23    26    1
    24    31    30    1
    25    31    34    1
    26    60    61    1
    27    28    27   ar
    28    63    62    2
    29    26    27    1
    30    61    62    1
    31    62    64   am
    32    27    29   ar
    33    20    19    2
    34    51    49   ar
    35    46    47    2
    36    46    45    1
    37    64    65    1
    38    19    18    1
    39    65    66    1
    40    65    68    1
    41    66    67    2
    42    48    45    1
    43    48    49    1
    44    45    44    1
    45    49    50   ar
    46    12    11    2
    47   114   115    1
    48    69    68    1
    49    69    70    1
    50    18    21    1
    51    18    17    1
    52    78    77    2
    53    11    17   am
    54    11    10    1
    55    79    77   am
    56   119   118    1
    57    77    76    1
    58    10     9    1
    59    10    13    1
    60   115   118    1
    61   115   116    1
    62   118   120    1
    63    95    93    1
    64    70    71    1
    65   117   116    2
    66    94    92    1
    67    13    14    1
    68    76    73    1
    69    16    14   am
    70    93    92    1
    71    92    89    1
    72    14    15    2
    73    72    73    1
    74     4     3    2
    75    73    74    1
    76     3     2    1
    77    89    88    1
    78    89    90    1
    79    74    75    2
    80    74    80   am
    81    90    91    2
    82    80    81    1
    83     2     1    1
    84     2     5    1
    85   127   126    1
    86   112   111    1
    87    87    85    1
    88    85    86    1
    89    85    84    1
    90   121   122    1
    91     5     6    1
    92    81    84    1
    93    81    82    1
    94   110   109    2
    95   109   108    1
    96   126   128    1
    97   126   125    1
    98   100   101    1
    99   100    97    1
   100   111   108    1
   101   111   113    1
   102    96    97    1
   103   122   125    1
   104   122   123    1
   105   102   101   ar
   106   102   104   ar
   107   108   107    1
   108     8     6    1
   109   101   103   ar
   110    97    98    1
   111    82    83    2
   112     6     7    1
   113   104   106   ar
   114   123   124    2
   115   103   105   ar
   116   106   105   ar
   117    98    99    2
