@<TRIPOS>MOLECULE
tmp/2iwvD19.pdb
 102 100 0 0 0
SMALL
GASTEIGER

@<TRIPOS>ATOM
      1  N         -6.4420  -62.2610  -36.2530 N.3    17  GLU17      -0.1245
      2  CA        -6.6850  -63.5440  -36.8520 C.3    17  GLU17       0.1567
      3  C         -6.1620  -63.6090  -38.2720 C.2    17  GLU17       0.2260
      4  O         -5.9570  -62.5700  -38.9340 O.2    17  GLU17      -0.2867
      5  CB        -8.0920  -64.0390  -36.6770 C.3    17  GLU17       0.0388
      6  CG        -9.1660  -63.0140  -36.6570 C.3    17  GLU17       0.1160
      7  CD       -10.5460  -63.6830  -36.7370 C.2    17  GLU17       0.3649
      8  OE1      -10.8310  -64.3470  -37.7720 O.co2  17  GLU17      -0.2457
      9  OE2      -11.3390  -63.5630  -35.7640 O.co2  17  GLU17      -0.2457
     10  N        -14.9150  -57.2470  -21.7150 N.3   235  LEU235     -0.1245
     11  CA       -15.4710  -57.5120  -20.4190 C.3   235  LEU235      0.1561
     12  C        -14.3540  -58.0030  -19.4820 C.2   235  LEU235      0.2260
     13  O        -13.5900  -58.9440  -19.8060 O.2   235  LEU235     -0.2867
     14  CB       -16.5610  -58.5660  -20.5310 C.3   235  LEU235      0.0270
     15  CG       -17.3050  -58.8410  -19.2380 C.3   235  LEU235      0.0019
     16  CD1      -18.4140  -57.8270  -19.0310 C.3   235  LEU235      0.0001
     17  CD2      -17.8990  -60.2280  -19.3530 C.3   235  LEU235      0.0001
     18  N        -13.8310  -59.5880  -15.5700 N.3   237  TYR237     -0.1241
     19  CA       -14.4790  -60.1970  -14.4270 C.3   237  TYR237      0.1605
     20  C        -13.4280  -60.5270  -13.3780 C.2   237  TYR237      0.2264
     21  O        -12.3850  -61.1360  -13.6700 O.2   237  TYR237     -0.2867
     22  CB       -15.2230  -61.4710  -14.8170 C.3   237  TYR237      0.0534
     23  CG       -15.7540  -62.2830  -13.6350 C.ar  237  TYR237     -0.0201
     24  CD1      -15.0400  -63.3660  -13.1240 C.ar  237  TYR237     -0.0009
     25  CD2      -16.9360  -61.9510  -13.0060 C.ar  237  TYR237     -0.0009
     26  CE1      -15.5240  -64.0900  -12.0360 C.ar  237  TYR237      0.0417
     27  CE2      -17.4120  -62.6690  -11.9450 C.ar  237  TYR237      0.0417
     28  CZ       -16.7090  -63.7290  -11.4690 C.ar  237  TYR237      0.1957
     29  OH       -17.1930  -64.4280  -10.3890 O.3   237  TYR237     -0.2866
     30  N        -10.5090  -62.5950  -15.0120 N.3   249  LEU249     -0.1231
     31  CA       -10.6240  -63.1340  -16.3640 C.3   249  LEU249      0.1693
     32  C        -11.0130  -61.9550  -17.1690 C.2   249  LEU249      0.2592
     33  O        -11.7820  -61.1320  -16.6750 O.2   249  LEU249     -0.2718
     34  CB       -11.7810  -64.1100  -16.4180 C.3   249  LEU249      0.0284
     35  CG       -11.5600  -65.5910  -16.5930 C.3   249  LEU249      0.0019
     36  CD1      -10.1160  -65.9750  -16.2240 C.3   249  LEU249      0.0001
     37  CD2      -12.6010  -66.3240  -15.7300 C.3   249  LEU249      0.0001
     38  N        -10.5240  -61.8650  -18.4000 N.am  250  GLU250     -0.1966
     39  CA       -10.8910  -60.7620  -19.2610 C.3   250  GLU250      0.1733
     40  C        -10.8420  -61.1640  -20.6940 C.2   250  GLU250      0.2616
     41  O         -9.8850  -61.8770  -21.1010 O.2   250  GLU250     -0.2715
     42  CB        -9.8770  -59.6400  -19.1190 C.3   250  GLU250      0.0429
     43  CG       -10.2530  -58.3590  -19.8370 C.3   250  GLU250      0.1163
     44  CD        -9.5640  -57.1260  -19.2240 C.2   250  GLU250      0.3649
     45  OE1       -8.8450  -57.2330  -18.1780 O.co2 250  GLU250     -0.2457
     46  OE2       -9.7370  -56.0460  -19.8110 O.co2 250  GLU250     -0.2457
     47  N        -11.7880  -60.6180  -21.4680 N.am  251  TYR251     -0.1974
     48  CA       -11.8140  -60.8200  -22.9070 C.3   251  TYR251      0.1639
     49  C        -12.2050  -59.5560  -23.7070 C.2   251  TYR251      0.2290
     50  O        -13.0670  -58.8130  -23.2620 O.2   251  TYR251     -0.2864
     51  CB       -12.7900  -61.9560  -23.2460 C.3   251  TYR251      0.0560
     52  CG       -12.9640  -62.0520  -24.7270 C.ar  251  TYR251     -0.0198
     53  CD1      -14.0420  -61.3860  -25.3870 C.ar  251  TYR251     -0.0009
     54  CD2      -12.0110  -62.6840  -25.4850 C.ar  251  TYR251     -0.0009
     55  CE1      -14.1490  -61.4120  -26.7840 C.ar  251  TYR251      0.0417
     56  CE2      -12.1060  -62.7250  -26.8510 C.ar  251  TYR251      0.0417
     57  CZ       -13.1780  -62.1000  -27.5000 C.ar  251  TYR251      0.1957
     58  OH       -13.1850  -62.1950  -28.8680 O.3   251  TYR251     -0.2866
     59  N        -12.6640  -57.9150  -27.9450 N.3   253  PHE253     -0.1241
     60  CA       -12.6540  -57.9720  -29.4180 C.3   253  PHE253      0.1605
     61  C        -12.4290  -56.5570  -29.9360 C.2   253  PHE253      0.2264
     62  O        -12.9440  -55.5910  -29.3730 O.2   253  PHE253     -0.2867
     63  CB       -13.9880  -58.5280  -29.9780 C.3   253  PHE253      0.0534
     64  CG       -13.9610  -58.7290  -31.4700 C.ar  253  PHE253     -0.0203
     65  CD1      -14.5210  -57.7870  -32.3200 C.ar  253  PHE253     -0.0042
     66  CD2      -13.3320  -59.8380  -32.0260 C.ar  253  PHE253     -0.0042
     67  CE1      -14.4300  -57.9490  -33.6960 C.ar  253  PHE253     -0.0003
     68  CE2      -13.2500  -60.0290  -33.3830 C.ar  253  PHE253     -0.0003
     69  CZ       -13.7940  -59.0810  -34.2300 C.ar  253  PHE253     -0.0000
     70  N        -12.2870  -54.3160  -33.6630 N.3   255  TRP255     -0.1241
     71  CA       -12.3280  -54.1560  -35.1170 C.3   255  TRP255      0.1605
     72  C        -11.2620  -53.1480  -35.5490 C.2   255  TRP255      0.2264
     73  O        -11.3030  -51.9840  -35.1410 O.2   255  TRP255     -0.2867
     74  CB       -13.6800  -53.6240  -35.5750 C.3   255  TRP255      0.0550
     75  CG       -14.8340  -54.4930  -35.1980 C.ar  255  TRP255      0.0003
     76  CD1      -15.4880  -55.3940  -36.0050 C.ar  255  TRP255      0.0946
     77  CD2      -15.4800  -54.5670  -33.9070 C.ar  255  TRP255      0.0152
     78  NE1      -16.5080  -56.0120  -35.2960 N.ar  255  TRP255     -0.2442
     79  CE2      -16.5230  -55.5200  -34.0130 C.ar  255  TRP255      0.0810
     80  CE3      -15.2750  -53.9180  -32.6730 C.ar  255  TRP255      0.0012
     81  CZ2      -17.3510  -55.8490  -32.9300 C.ar  255  TRP255      0.0191
     82  CZ3      -16.1110  -54.2350  -31.5930 C.ar  255  TRP255      0.0001
     83  CH2      -17.1420  -55.1900  -31.7360 C.ar  255  TRP255      0.0015
     84  N         -9.4600  -58.4490  -37.4750 N.3   265  LYS265     -0.1245
     85  CA       -10.1970  -58.7930  -36.2550 C.3   265  LYS265      0.1561
     86  C         -9.1690  -59.2240  -35.2290 C.2   265  LYS265      0.2260
     87  O         -8.3570  -60.0830  -35.4890 O.2   265  LYS265     -0.2867
     88  CB       -11.1450  -59.9560  -36.4980 C.3   265  LYS265      0.0271
     89  CG       -11.8270  -59.9380  -37.8720 C.3   265  LYS265      0.0035
     90  CD       -13.2620  -59.4110  -37.8130 C.3   265  LYS265      0.0206
     91  CE       -14.2380  -60.5490  -37.4900 C.3   265  LYS265      0.1093
     92  NZ       -13.9060  -61.7690  -38.2810 N.3   265  LYS265     -0.1314
     93  N         -8.3100  -60.2240  -31.0330 N.3   267  HIS267     -0.1241
     94  CA        -8.8370  -60.7500  -29.7720 C.3   267  HIS267      0.1621
     95  C         -7.7900  -60.6220  -28.7310 C.2   267  HIS267      0.2264
     96  O         -6.6110  -60.8390  -29.0030 O.2   267  HIS267     -0.2867
     97  CB        -9.0940  -62.2450  -29.8670 C.3   267  HIS267      0.0745
     98  CG        -9.9550  -62.6290  -31.0070 C.ar  267  HIS267      0.0817
     99  ND1      -11.3300  -62.5230  -30.9540 N.ar  267  HIS267     -0.2268
    100  CD2       -9.6520  -63.0670  -32.2490 C.ar  267  HIS267      0.1154
    101  CE1      -11.8400  -62.8850  -32.1180 C.ar  267  HIS267      0.1986
    102  NE2      -10.8440  -63.2230  -32.9200 N.ar  267  HIS267     -0.2212
@<TRIPOS>BOND
     1     4     3    2
     2    92    91    1
     3     3     2    1
     4    89    90    1
     5    89    88    1
     6    90    91    1
     7     8     7   ar
     8    84    85    1
     9     2     5    1
    10     2     1    1
    11     7     6    1
    12     7     9   ar
    13     5     6    1
    14    88    85    1
    15    85    86    1
    16    76    78   ar
    17    76    75   ar
    18    74    75    1
    19    74    71    1
    20    72    73    2
    21    72    71    1
    22    87    86    2
    23    78    79   ar
    24    75    77   ar
    25    71    70    1
    26    69    67   ar
    27    69    68   ar
    28    79    77   ar
    29    79    81   ar
    30    77    80   ar
    31    67    65   ar
    32    68    66   ar
    33    81    83   ar
    34   102   100   ar
    35   102   101   ar
    36    80    82   ar
    37    65    64   ar
    38   100    98   ar
    39   101    99   ar
    40    66    64   ar
    41    83    82   ar
    42    64    63    1
    43    93    94    1
    44    98    99   ar
    45    98    97    1
    46    63    60    1
    47    61    60    1
    48    61    62    2
    49    97    94    1
    50    94    95    1
    51    60    59    1
    52    96    95    2
    53    58    57    1
    54    57    56   ar
    55    57    55   ar
    56    56    54   ar
    57    55    53   ar
    58    54    52   ar
    59    53    52   ar
    60    52    51    1
    61    49    50    2
    62    49    48    1
    63    51    48    1
    64    48    47    1
    65    10    11    1
    66    47    40   am
    67    41    40    2
    68    40    39    1
    69    14    11    1
    70    14    15    1
    71    11    12    1
    72    43    44    1
    73    43    42    1
    74    46    44   ar
    75    13    12    2
    76    17    15    1
    77    39    42    1
    78    39    38    1
    79    15    16    1
    80    44    45   ar
    81    38    32   am
    82    32    33    2
    83    32    31    1
    84    35    34    1
    85    35    36    1
    86    35    37    1
    87    34    31    1
    88    31    30    1
    89    18    19    1
    90    22    19    1
    91    22    23    1
    92    19    20    1
    93    21    20    2
    94    23    24   ar
    95    23    25   ar
    96    24    26   ar
    97    25    27   ar
    98    26    28   ar
    99    27    28   ar
   100    28    29    1
