@<TRIPOS>MOLECULE
tmp/2iwvD01.pdb
 84 82 0 0 0
SMALL
GASTEIGER

@<TRIPOS>ATOM
      1  N          0.5500  -63.1830  -10.9250 N.3     9  ALA9       -0.1231
      2  CA         1.0090  -63.7240  -12.1870 C.3     9  ALA9        0.1694
      3  C         -0.1300  -63.4560  -13.1340 C.2     9  ALA9        0.2592
      4  O         -1.2880  -63.4710  -12.6860 O.2     9  ALA9       -0.2718
      5  CB         1.1750  -65.1880  -12.0500 C.3     9  ALA9        0.0304
      6  N          0.2020  -63.2030  -14.4070 N.am   10  MET10      -0.1965
      7  CA        -0.7820  -63.0920  -15.5040 C.3    10  MET10       0.1736
      8  C         -0.3950  -63.8690  -16.7520 C.2    10  MET10       0.2616
      9  O          0.7440  -63.8720  -17.1630 O.2    10  MET10      -0.2715
     10  CB        -0.9630  -61.6400  -15.9210 C.3    10  MET10       0.0427
     11  CG        -2.0480  -60.9360  -15.1680 C.3    10  MET10       0.0599
     12  SD        -3.2060  -60.1440  -16.3250 S.3    10  MET10      -0.1393
     13  CE        -2.4280  -58.5190  -16.3930 C.3    10  MET10       0.0692
     14  N         -1.3420  -64.5300  -17.3760 N.am   11  TYR11      -0.1974
     15  CA        -1.0900  -65.0070  -18.7130 C.3    11  TYR11       0.1639
     16  C         -2.0990  -64.3070  -19.6200 C.2    11  TYR11       0.2290
     17  O         -3.2930  -64.2650  -19.3140 O.2    11  TYR11      -0.2864
     18  CB        -1.2350  -66.5410  -18.7810 C.3    11  TYR11       0.0560
     19  CG        -0.7470  -67.1460  -20.0760 C.ar   11  TYR11      -0.0198
     20  CD1       -1.6360  -67.4640  -21.0920 C.ar   11  TYR11      -0.0009
     21  CD2        0.6130  -67.3650  -20.3010 C.ar   11  TYR11      -0.0009
     22  CE1       -1.1870  -67.9910  -22.2710 C.ar   11  TYR11       0.0417
     23  CE2        1.0750  -67.9100  -21.5080 C.ar   11  TYR11       0.0417
     24  CZ         0.1830  -68.2270  -22.4670 C.ar   11  TYR11       0.1957
     25  OH         0.6600  -68.7600  -23.6460 O.3    11  TYR11      -0.2866
     26  N          3.2810  -64.1820  -20.7750 N.3    29  PRO29      -0.2102
     27  CA         3.3480  -64.5330  -19.3780 C.3    29  PRO29       0.1504
     28  C          4.0760  -63.4890  -18.5140 C.2    29  PRO29       0.2576
     29  O          5.1090  -62.9580  -18.9120 O.2    29  PRO29      -0.2718
     30  CB         4.1450  -65.8400  -19.4000 C.3    29  PRO29       0.0282
     31  CG         5.1450  -65.6640  -20.5490 C.3    29  PRO29       0.0208
     32  CD         4.3510  -64.8200  -21.5660 C.3    29  PRO29       0.0893
     33  N          3.5590  -63.2330  -17.3170 N.am   30  SER30      -0.1938
     34  CA         4.2040  -62.3030  -16.4070 C.3    30  SER30       0.2055
     35  C          3.9990  -62.6050  -14.9010 C.2    30  SER30       0.2642
     36  O          3.0040  -63.2040  -14.4690 O.2    30  SER30      -0.2714
     37  CB         3.8070  -60.8650  -16.7740 C.3    30  SER30       0.2130
     38  OG         2.3810  -60.5950  -16.7250 O.3    30  SER30      -0.2179
     39  N          4.9950  -62.2340  -14.1160 N.am   31  VAL31      -0.1977
     40  CA         4.9040  -62.3030  -12.6560 C.3    31  VAL31       0.1596
     41  C          5.1970  -60.9000  -12.1780 C.2    31  VAL31       0.2287
     42  O          5.9160  -60.1680  -12.8650 O.2    31  VAL31      -0.2864
     43  CB         5.9190  -63.3040  -12.0520 C.3    31  VAL31       0.0276
     44  CG1        5.2980  -64.6840  -12.0490 C.3    31  VAL31       0.0022
     45  CG2        7.2240  -63.3160  -12.8410 C.3    31  VAL31       0.0022
     46  N          8.5200  -59.1840  -14.1850 N.3    46  TYR46      -0.1241
     47  CA         9.1330  -59.8130  -15.3300 C.3    46  TYR46       0.1605
     48  C          8.0130  -60.2870  -16.2560 C.2    46  TYR46       0.2264
     49  O          6.9690  -60.7650  -15.7930 O.2    46  TYR46      -0.2867
     50  CB         9.9990  -61.0220  -14.8850 C.3    46  TYR46       0.0534
     51  CG        10.7640  -61.6500  -16.0440 C.ar   46  TYR46      -0.0201
     52  CD1       10.3380  -62.8680  -16.6130 C.ar   46  TYR46      -0.0009
     53  CD2       11.8940  -61.0220  -16.5870 C.ar   46  TYR46      -0.0009
     54  CE1       11.0210  -63.4360  -17.7100 C.ar   46  TYR46       0.0417
     55  CE2       12.5900  -61.5980  -17.6820 C.ar   46  TYR46       0.0417
     56  CZ        12.1340  -62.7940  -18.2220 C.ar   46  TYR46       0.1957
     57  OH        12.7860  -63.3580  -19.2940 O.3    46  TYR46      -0.2866
     58  N          7.2910  -61.8030  -20.5970 N.3    48  GLN48      -0.1245
     59  CA         7.6550  -62.0920  -21.9930 C.3    48  GLN48       0.1566
     60  C          6.5130  -61.8560  -22.9920 C.2    48  GLN48       0.2260
     61  O          5.3610  -62.0460  -22.6380 O.2    48  GLN48      -0.2867
     62  CB         8.1310  -63.5130  -22.1410 C.3    48  GLN48       0.0367
     63  CG         9.3290  -63.7850  -21.2030 C.3    48  GLN48       0.0905
     64  CD        10.0930  -65.0220  -21.5670 C.2    48  GLN48       0.2608
     65  OE1        9.7530  -65.7210  -22.5250 O.2    48  GLN48      -0.2717
     66  NE2       11.1790  -65.2920  -20.8200 N.am   48  GLN48      -0.0878
     67  N         -5.9360  -64.1060  -18.0330 N.3   271  VAL271     -0.1231
     68  CA        -6.2280  -64.5860  -16.6780 C.3   271  VAL271      0.1692
     69  C         -5.1440  -64.0930  -15.7400 C.2   271  VAL271      0.2593
     70  O         -3.9760  -64.1200  -16.1210 O.2   271  VAL271     -0.2718
     71  CB        -6.0530  -66.1270  -16.4960 C.3   271  VAL271      0.0266
     72  CG1       -7.3010  -66.7700  -15.9220 C.3   271  VAL271      0.0020
     73  CG2       -5.3680  -66.8640  -17.6800 C.3   271  VAL271      0.0020
     74  N         -5.4940  -63.7350  -14.5030 N.am  272  GLY272     -0.1942
     75  CA        -4.4710  -63.5000  -13.4540 C.3   272  GLY272      0.2014
     76  C         -4.9390  -63.9290  -12.0720 C.2   272  GLY272      0.2638
     77  O         -6.1190  -64.1570  -11.8600 O.2   272  GLY272     -0.2714
     78  N         -3.9860  -64.0800  -11.1650 N.am  273  VAL273     -0.1977
     79  CA        -4.1930  -64.2900   -9.7380 C.3   273  VAL273      0.1596
     80  C         -3.3520  -63.2060   -9.0550 C.2   273  VAL273      0.2287
     81  O         -2.2310  -62.9080   -9.5110 O.2   273  VAL273     -0.2864
     82  CB        -3.4380  -65.5190   -9.1640 C.3   273  VAL273      0.0276
     83  CG1       -4.2610  -66.2670   -8.1240 C.3   273  VAL273      0.0022
     84  CG2       -2.8910  -66.3990  -10.1980 C.3   273  VAL273      0.0022
@<TRIPOS>BOND
     1    25    24    1
     2    60    61    2
     3    60    59    1
     4    65    64    2
     5    24    22   ar
     6    24    23   ar
     7    22    20   ar
     8    62    59    1
     9    62    63    1
    10    59    58    1
    11    64    63    1
    12    64    66   am
    13    32    26    1
    14    32    31    1
    15    23    21   ar
    16    20    19   ar
    17    26    27    1
    18    31    30    1
    19    21    19   ar
    20    19    18    1
    21    16    17    2
    22    16    15    1
    23    30    27    1
    24    27    28    1
    25    57    56    1
    26    29    28    2
    27    18    15    1
    28    15    14    1
    29    28    33   am
    30    56    54   ar
    31    56    55   ar
    32    67    68    1
    33    54    52   ar
    34    55    53   ar
    35    73    71    1
    36    14     8   am
    37    33    34    1
    38     9     8    2
    39    37    38    1
    40    37    34    1
    41     8     7    1
    42    68    71    1
    43    68    69    1
    44    52    51   ar
    45    53    51   ar
    46    71    72    1
    47    34    35    1
    48    13    12    1
    49    12    11    1
    50    48    49    2
    51    48    47    1
    52    70    69    2
    53    51    50    1
    54    10     7    1
    55    10    11    1
    56    69    74   am
    57     7     6    1
    58    47    50    1
    59    47    46    1
    60    35    36    2
    61    35    39   am
    62    74    75    1
    63     6     3   am
    64    39    40    1
    65    75    76    1
    66     3     4    2
    67     3     2    1
    68    42    41    2
    69    45    43    1
    70    40    41    1
    71    40    43    1
    72     2     5    1
    73     2     1    1
    74    76    77    2
    75    76    78   am
    76    43    44    1
    77    78    79    1
    78    84    82    1
    79    79    82    1
    80    79    80    1
    81    81    80    2
    82    82    83    1
