@<TRIPOS>MOLECULE
tmp/2iwvA09.pdb
 82 76 0 0 0
SMALL
GASTEIGER

@<TRIPOS>ATOM
      1  N          4.4070   -2.9360   -2.9080 N.3    13  ILE13      -0.1245
      2  CA         3.6370   -2.4280   -1.7910 C.3    13  ILE13       0.1561
      3  C          2.2680   -3.0900   -1.8010 C.2    13  ILE13       0.2260
      4  O          1.6930   -3.2370   -2.8580 O.2    13  ILE13      -0.2867
      5  CB         3.5070   -0.8770   -1.9190 C.3    13  ILE13       0.0252
      6  CG1        4.2910   -0.1840   -0.8070 C.3    13  ILE13       0.0019
      7  CG2        2.0270   -0.4000   -1.8370 C.3    13  ILE13       0.0019
      8  CD1        5.7520   -0.2770   -0.9200 C.3    13  ILE13       0.0001
      9  N         -1.4150   -2.7740    0.6640 N.3    15  ASN15      -0.1240
     10  CA        -1.9560   -1.9800    1.7610 C.3    15  ASN15       0.1653
     11  C         -3.4750   -1.9310    1.6960 C.2    15  ASN15       0.2266
     12  O         -3.9960   -1.5720    0.6520 O.2    15  ASN15      -0.2867
     13  CB        -1.3350   -0.5380    1.7160 C.3    15  ASN15       0.1155
     14  CG        -1.9910    0.4410    2.6850 C.2    15  ASN15       0.2627
     15  OD1       -1.8670    0.3490    3.9170 O.2    15  ASN15      -0.2716
     16  ND2       -2.7180    1.3790    2.1230 N.am   15  ASN15      -0.0877
     17  N          0.5540    1.4280    7.6200 N.3    24  ASP24      -0.1225
     18  CA         0.5270    2.2540    6.4020 C.3    24  ASP24       0.1805
     19  C          0.6690    1.4570    5.1160 C.2    24  ASP24       0.2598
     20  O          0.6950    2.0270    4.0250 O.2    24  ASP24      -0.2718
     21  CB         1.6460    3.3060    6.4120 C.3    24  ASP24       0.1424
     22  CG         1.3910    4.4550    7.3770 C.2    24  ASP24       0.3668
     23  OD1        2.3850    5.0610    7.8430 O.co2  24  ASP24      -0.2456
     24  OD2        0.2080    4.7730    7.6750 O.co2  24  ASP24      -0.2456
     25  N          0.7300    0.1310    5.2390 N.am   25  GLY25      -0.1957
     26  CA         0.9160   -0.7990    4.1220 C.3    25  GLY25       0.1869
     27  C          2.0800   -1.7460    4.3820 C.2    25  GLY25       0.2309
     28  O          2.9350   -1.4860    5.2520 O.2    25  GLY25      -0.2863
     29  N          5.3420    5.0530    8.3950 N.3    54  TYR54      -0.1241
     30  CA         6.2920    5.9160    7.6860 C.3    54  TYR54       0.1605
     31  C          6.7390    7.1670    8.4710 C.2    54  TYR54       0.2264
     32  O          7.9180    7.5790    8.3890 O.2    54  TYR54      -0.2867
     33  CB         5.7520    6.3270    6.3180 C.3    54  TYR54       0.0534
     34  CG         5.7400    5.2190    5.3000 C.ar   54  TYR54      -0.0201
     35  CD1        4.5400    4.6210    4.9010 C.ar   54  TYR54      -0.0009
     36  CD2        6.9040    4.7980    4.7030 C.ar   54  TYR54      -0.0009
     37  CE1        4.5010    3.6290    3.9260 C.ar   54  TYR54       0.0417
     38  CE2        6.8860    3.7950    3.7460 C.ar   54  TYR54       0.0417
     39  CZ         5.6750    3.2070    3.3640 C.ar   54  TYR54       0.1957
     40  OH         5.6460    2.1980    2.4210 O.3    54  TYR54      -0.2866
     41  N          6.1370   -2.0140  -14.3490 N.3   249  LEU249     -0.1245
     42  CA         5.3820   -1.2330  -13.3770 C.3   249  LEU249      0.1561
     43  C          4.0730   -1.9580  -13.3110 C.2   249  LEU249      0.2260
     44  O          3.6420   -2.5070  -14.3210 O.2   249  LEU249     -0.2867
     45  CB         5.1420    0.1460  -13.9470 C.3   249  LEU249      0.0270
     46  CG         5.7660    1.3890  -13.3810 C.3   249  LEU249      0.0019
     47  CD1        7.0540    1.0760  -12.5490 C.3   249  LEU249      0.0001
     48  CD2        6.0420    2.3020  -14.5410 C.3   249  LEU249      0.0001
     49  N          0.0090   -2.0410  -11.1790 N.3   251  TYR251     -0.1241
     50  CA        -0.8930   -1.5530  -10.1610 C.3   251  TYR251      0.1605
     51  C         -2.2460   -2.2950  -10.1070 C.2   251  TYR251      0.2264
     52  O         -2.8260   -2.6300  -11.1370 O.2   251  TYR251     -0.2867
     53  CB        -1.1260   -0.0340  -10.3330 C.3   251  TYR251      0.0534
     54  CG        -2.2330    0.4210   -9.4320 C.ar  251  TYR251     -0.0201
     55  CD1       -3.5890    0.4570   -9.8800 C.ar  251  TYR251     -0.0009
     56  CD2       -1.9540    0.7270   -8.1270 C.ar  251  TYR251     -0.0009
     57  CE1       -4.6420    0.8140   -8.9980 C.ar  251  TYR251      0.0417
     58  CE2       -2.9470    1.0750   -7.2550 C.ar  251  TYR251      0.0417
     59  CZ        -4.2830    1.1190   -7.6780 C.ar  251  TYR251      0.1957
     60  OH        -5.1890    1.4860   -6.7070 O.3   251  TYR251     -0.2866
     61  N         -4.8190   -1.9310   -2.2060 N.3   267  HIS267     -0.1241
     62  CA        -3.9830   -1.4810   -3.3430 C.3   267  HIS267      0.1621
     63  C         -2.7220   -2.2490   -3.3620 C.2   267  HIS267      0.2264
     64  O         -2.1070   -2.4530   -2.3110 O.2   267  HIS267     -0.2867
     65  CB        -3.5470   -0.0320   -3.1460 C.3   267  HIS267      0.0745
     66  CG        -4.6850    0.8860   -2.9040 C.ar  267  HIS267      0.0817
     67  ND1       -5.4660    1.3720   -3.9320 N.ar  267  HIS267     -0.2268
     68  CD2       -5.2340    1.3430   -1.7560 C.ar  267  HIS267      0.1154
     69  CE1       -6.4330    2.1160   -3.4270 C.ar  267  HIS267      0.1986
     70  NE2       -6.3180    2.1120   -2.1110 N.ar  267  HIS267     -0.2212
     71  N          1.0140   -2.1810   -5.5640 N.3   269  ALA269     -0.1245
     72  CA         1.9030   -1.4600   -6.4710 C.3   269  ALA269      0.1562
     73  C          3.2880   -2.0540   -6.5890 C.2   269  ALA269      0.2260
     74  O          3.9390   -2.4330   -5.5510 O.2   269  ALA269     -0.2867
     75  CB         2.0780   -0.0550   -5.9730 C.3   269  ALA269      0.0290
     76  N          7.2680   -2.1030   -8.8200 N.3   271  VAL271     -0.1245
     77  CA         8.2580   -1.7880   -9.8700 C.3   271  VAL271      0.1561
     78  C          9.2990   -2.8750   -9.8500 C.2   271  VAL271      0.2260
     79  O          9.6980   -3.2780   -8.7670 O.2   271  VAL271     -0.2867
     80  CB         9.2020   -0.5980   -9.5120 C.3   271  VAL271      0.0252
     81  CG1        9.3710    0.3900  -10.6710 C.3   271  VAL271      0.0019
     82  CG2        8.9040    0.0470   -8.1960 C.3   271  VAL271      0.0019
@<TRIPOS>BOND
     1    48    46    1
     2    41    42    1
     3    44    43    2
     4    45    46    1
     5    45    42    1
     6    46    47    1
     7    42    43    1
     8    49    50    1
     9    52    51    2
    10    81    80    1
    11    53    50    1
    12    53    54    1
    13    50    51    1
    14    55    54   ar
    15    55    57   ar
    16    77    78    1
    17    77    80    1
    18    77    76    1
    19    78    79    2
    20    80    82    1
    21    54    56   ar
    22    57    59   ar
    23    56    58   ar
    24    59    58   ar
    25    59    60    1
    26    73    72    1
    27    73    74    2
    28    72    75    1
    29    72    71    1
    30    67    69   ar
    31    67    66   ar
    32    69    70   ar
    33    63    62    1
    34    63    64    2
    35    62    65    1
    36    62    61    1
    37    65    66    1
    38     1     2    1
    39    66    68   ar
    40     4     3    2
    41    70    68   ar
    42     5     7    1
    43     5     2    1
    44     5     6    1
    45     3     2    1
    46     8     6    1
    47    12    11    2
    48     9    10    1
    49    11    10    1
    50    13    10    1
    51    13    14    1
    52    16    14   am
    53    40    39    1
    54    14    15    2
    55    39    38   ar
    56    39    37   ar
    57    38    36   ar
    58    37    35   ar
    59    20    19    2
    60    26    27    1
    61    26    25    1
    62    27    28    2
    63    36    34   ar
    64    35    34   ar
    65    19    25   am
    66    19    18    1
    67    34    33    1
    68    33    30    1
    69    18    21    1
    70    18    17    1
    71    21    22    1
    72    22    24   ar
    73    22    23   ar
    74    30    29    1
    75    30    31    1
    76    32    31    2
