@<TRIPOS>MOLECULE
tmp/2iwvC13.pdb
 79 75 0 0 0
SMALL
GASTEIGER

@<TRIPOS>ATOM
      1  N          1.5560  -53.8990  -70.1960 N.3    44  LEU44      -0.1231
      2  CA         1.7210  -53.4370  -71.5850 C.3    44  LEU44       0.1693
      3  C          3.0940  -52.7970  -71.7430 C.2    44  LEU44       0.2592
      4  O          3.6560  -52.2690  -70.7930 O.2    44  LEU44      -0.2718
      5  CB         0.6540  -52.4130  -71.9620 C.3    44  LEU44       0.0284
      6  CG        -0.7980  -52.8930  -71.9890 C.3    44  LEU44       0.0019
      7  CD1       -1.7610  -51.7110  -72.0650 C.3    44  LEU44       0.0001
      8  CD2       -1.0320  -53.8730  -73.1540 C.3    44  LEU44       0.0001
      9  N          3.6410  -52.8650  -72.9430 N.am   45  ALA45      -0.1966
     10  CA         4.8650  -52.1860  -73.2000 C.3    45  ALA45       0.1728
     11  C          4.8480  -51.8010  -74.6600 C.2    45  ALA45       0.2616
     12  O          4.2860  -52.5100  -75.4400 O.2    45  ALA45      -0.2715
     13  CB         6.0980  -53.1080  -72.8420 C.3    45  ALA45       0.0334
     14  N          5.4060  -50.6420  -74.9930 N.am   46  TYR46      -0.1974
     15  CA         5.9230  -50.3440  -76.3140 C.3    46  TYR46       0.1639
     16  C          7.4600  -50.0340  -76.2530 C.2    46  TYR46       0.2290
     17  O          7.9460  -49.4130  -75.3250 O.2    46  TYR46      -0.2864
     18  CB         5.1860  -49.1570  -76.8740 C.3    46  TYR46       0.0560
     19  CG         5.4930  -48.8540  -78.3250 C.ar   46  TYR46      -0.0198
     20  CD1        6.2860  -47.7490  -78.6710 C.ar   46  TYR46      -0.0009
     21  CD2        4.9490  -49.6230  -79.3550 C.ar   46  TYR46      -0.0009
     22  CE1        6.5650  -47.4390  -80.0250 C.ar   46  TYR46       0.0417
     23  CE2        5.2140  -49.3200  -80.7110 C.ar   46  TYR46       0.0417
     24  CZ         6.0070  -48.2230  -81.0270 C.ar   46  TYR46       0.1957
     25  OH         6.2880  -47.9350  -82.3590 O.3    46  TYR46      -0.2866
     26  N          9.7190  -51.6690  -84.0010 N.3    64  ASP64      -0.1239
     27  CA         9.0260  -51.3780  -82.7980 C.3    64  ASP64       0.1674
     28  C          8.3760  -52.6440  -82.2780 C.2    64  ASP64       0.2266
     29  O          8.2860  -53.6490  -82.9780 O.2    64  ASP64      -0.2867
     30  CB         8.0060  -50.2920  -83.0580 C.3    64  ASP64       0.1410
     31  CG         6.7300  -50.8150  -83.6760 C.2    64  ASP64       0.3668
     32  OD1        5.8420  -49.9720  -83.8830 O.co2  64  ASP64      -0.2456
     33  OD2        6.5890  -52.0290  -83.9250 O.co2  64  ASP64      -0.2456
     34  N          5.3680  -53.5980  -79.6490 N.3    66  PRO66      -0.2102
     35  CA         4.2740  -53.5910  -78.6930 C.3    66  PRO66       0.1504
     36  C          4.1320  -54.9690  -78.0510 C.2    66  PRO66       0.2575
     37  O          4.3630  -55.9570  -78.7330 O.2    66  PRO66      -0.2718
     38  CB         3.0630  -53.3230  -79.5860 C.3    66  PRO66       0.0282
     39  CG         3.4290  -53.8790  -80.8610 C.3    66  PRO66       0.0208
     40  CD         4.8620  -53.5190  -81.0320 C.3    66  PRO66       0.0893
     41  N          3.7200  -55.0480  -76.7830 N.am   67  GLU67      -0.1980
     42  CA         3.7530  -56.2990  -76.0540 C.3    67  GLU67       0.1602
     43  C          2.6350  -56.3180  -75.0740 C.2    67  GLU67       0.2287
     44  O          2.3900  -55.3260  -74.4260 O.2    67  GLU67      -0.2864
     45  CB         5.0820  -56.4330  -75.2500 C.3    67  GLU67       0.0415
     46  CG         5.0270  -57.5030  -74.1640 C.3    67  GLU67       0.1163
     47  CD         6.4160  -57.8450  -73.5280 C.2    67  GLU67       0.3649
     48  OE1        6.6710  -57.3730  -72.3700 O.co2  67  GLU67      -0.2457
     49  OE2        7.2390  -58.5970  -74.1510 O.co2  67  GLU67      -0.2457
     50  N          4.4700  -58.0530  -81.0420 N.3    90  ASN90      -0.1240
     51  CA         4.7100  -57.9810  -82.4550 C.3    90  ASN90       0.1653
     52  C          6.0020  -57.2410  -82.6400 C.2    90  ASN90       0.2266
     53  O          6.2860  -56.2900  -81.9060 O.2    90  ASN90      -0.2867
     54  CB         3.5840  -57.2570  -83.1560 C.3    90  ASN90       0.1155
     55  CG         3.7520  -57.2790  -84.6320 C.2    90  ASN90       0.2627
     56  OD1        4.1630  -56.2850  -85.2420 O.2    90  ASN90      -0.2716
     57  ND2        3.4990  -58.4350  -85.2280 N.am   90  ASN90      -0.0877
     58  N          7.6550  -55.1380  -85.4280 N.3    92  GLY92      -0.1225
     59  CA         7.3670  -54.5250  -86.7310 C.3    92  GLY92       0.1811
     60  C          8.5630  -53.8530  -87.3530 C.2    92  GLY92       0.2280
     61  O          8.9460  -52.7700  -86.9220 O.2    92  GLY92      -0.2866
     62  N         11.2490  -52.1900  -90.0830 N.3    94  HIS94      -0.1241
     63  CA        11.3540  -51.1750  -91.1230 C.3    94  HIS94       0.1621
     64  C         12.7790  -51.2210  -91.6290 C.2    94  HIS94       0.2264
     65  O         13.7250  -50.8640  -90.9060 O.2    94  HIS94      -0.2867
     66  CB        11.0050  -49.8050  -90.5360 C.3    94  HIS94       0.0745
     67  CG         9.5910  -49.7320  -90.0300 C.ar   94  HIS94       0.0817
     68  ND1        8.5370  -49.3190  -90.8190 N.ar   94  HIS94      -0.2268
     69  CD2        9.0540  -50.0780  -88.8360 C.ar   94  HIS94       0.1154
     70  CE1        7.4140  -49.3910  -90.1240 C.ar   94  HIS94       0.1986
     71  NE2        7.6970  -49.8640  -88.9230 N.ar   94  HIS94      -0.2212
     72  N          6.4560  -58.2240  -90.2660 N.3   105  ASN105     -0.1240
     73  CA         5.7390  -58.3070  -89.0040 C.3   105  ASN105      0.1653
     74  C          5.8470  -59.7520  -88.5850 C.2   105  ASN105      0.2266
     75  O          5.3670  -60.6330  -89.2880 O.2   105  ASN105     -0.2867
     76  CB         4.2590  -57.9110  -89.1370 C.3   105  ASN105      0.1155
     77  CG         4.0840  -56.4350  -89.4110 C.2   105  ASN105      0.2627
     78  OD1        4.0130  -56.0170  -90.5510 O.2   105  ASN105     -0.2716
     79  ND2        4.0750  -55.6400  -88.3730 N.am  105  ASN105     -0.0877
@<TRIPOS>BOND
     1    64    63    1
     2    64    65    2
     3    63    66    1
     4    63    62    1
     5    68    70   ar
     6    68    67   ar
     7    78    77    2
     8    66    67    1
     9    72    73    1
    10    70    71   ar
    11    67    69   ar
    12    77    76    1
    13    77    79   am
    14    75    74    2
    15    76    73    1
    16    73    74    1
    17    71    69   ar
    18    60    61    2
    19    60    59    1
    20    59    58    1
    21    56    55    2
    22    57    55   am
    23    55    54    1
    24    26    27    1
    25    33    31   ar
    26    32    31   ar
    27    31    30    1
    28    54    51    1
    29    30    27    1
    30    29    28    2
    31    27    28    1
    32    52    51    1
    33    52    53    2
    34    51    50    1
    35    25    24    1
    36    40    39    1
    37    40    34    1
    38    24    23   ar
    39    24    22   ar
    40    39    38    1
    41    23    21   ar
    42    22    20   ar
    43    34    35    1
    44    38    35    1
    45    21    19   ar
    46    37    36    2
    47    35    36    1
    48    20    19   ar
    49    19    18    1
    50    36    41   am
    51    18    15    1
    52    41    42    1
    53    15    16    1
    54    15    14    1
    55    16    17    2
    56    42    45    1
    57    42    43    1
    58    12    11    2
    59    45    46    1
    60    43    44    2
    61    14    11   am
    62    11    10    1
    63    46    47    1
    64    49    47   ar
    65    47    48   ar
    66    10     9    1
    67    10    13    1
    68     8     6    1
    69     9     3   am
    70     7     6    1
    71     6     5    1
    72     5     2    1
    73     3     2    1
    74     3     4    2
    75     2     1    1
