@<TRIPOS>MOLECULE
tmp/2iwvD10.pdb
 79 76 0 0 0
SMALL
GASTEIGER

@<TRIPOS>ATOM
      1  N          1.7840  -60.2410   -4.5960 N.3     7  ILE7       -0.1231
      2  CA         2.4390  -61.0720   -5.6130 C.3     7  ILE7        0.1692
      3  C          1.3640  -61.5930   -6.5160 C.2     7  ILE7        0.2593
      4  O          0.2770  -61.8810   -6.0640 O.2     7  ILE7       -0.2718
      5  CB         3.1470  -62.3260   -5.0570 C.3     7  ILE7        0.0266
      6  CG1        2.4100  -62.8440   -3.8360 C.3     7  ILE7        0.0019
      7  CG2        4.5780  -62.0420   -4.6860 C.3     7  ILE7        0.0020
      8  CD1        2.1800  -64.3060   -3.8640 C.3     7  ILE7        0.0001
      9  N          1.6740  -61.7490   -7.7950 N.am    8  GLY8       -0.1942
     10  CA         0.7010  -62.2990   -8.7180 C.3     8  GLY8        0.2014
     11  C          1.3570  -62.6090  -10.0380 C.2     8  GLY8        0.2638
     12  O          2.5610  -62.3190  -10.2510 O.2     8  GLY8       -0.2714
     13  N          0.5500  -63.1830  -10.9250 N.am    9  ALA9       -0.1977
     14  CA         1.0090  -63.7240  -12.1870 C.3     9  ALA9        0.1597
     15  C         -0.1300  -63.4560  -13.1340 C.2     9  ALA9        0.2287
     16  O         -1.2880  -63.4710  -12.6860 O.2     9  ALA9       -0.2864
     17  CB         1.1750  -65.1880  -12.0500 C.3     9  ALA9        0.0319
     18  N          4.9950  -62.2340  -14.1160 N.3    31  VAL31      -0.1231
     19  CA         4.9040  -62.3030  -12.6560 C.3    31  VAL31       0.1692
     20  C          5.1970  -60.9000  -12.1780 C.2    31  VAL31       0.2592
     21  O          5.9160  -60.1680  -12.8650 O.2    31  VAL31      -0.2718
     22  CB         5.9190  -63.3040  -12.0520 C.3    31  VAL31       0.0266
     23  CG1        5.2980  -64.6840  -12.0490 C.3    31  VAL31       0.0020
     24  CG2        7.2240  -63.3160  -12.8410 C.3    31  VAL31       0.0020
     25  N          4.6440  -60.5050  -11.0350 N.am   32  TYR32      -0.1976
     26  CA         4.9950  -59.1980  -10.4650 C.3    32  TYR32       0.1639
     27  C          4.9830  -59.3230   -8.9370 C.2    32  TYR32       0.2290
     28  O          4.3430  -60.2040   -8.3930 O.2    32  TYR32      -0.2864
     29  CB         4.0300  -58.1060  -10.9890 C.3    32  TYR32       0.0560
     30  CG         2.6000  -58.3700  -10.6050 C.ar   32  TYR32      -0.0198
     31  CD1        1.7190  -58.9820  -11.4850 C.ar   32  TYR32      -0.0009
     32  CD2        2.1470  -58.0810   -9.3090 C.ar   32  TYR32      -0.0009
     33  CE1        0.4220  -59.2520  -11.0870 C.ar   32  TYR32       0.0417
     34  CE2        0.8530  -58.3550   -8.9110 C.ar   32  TYR32       0.0417
     35  CZ         0.0000  -58.9330   -9.7920 C.ar   32  TYR32       0.1957
     36  OH        -1.2980  -59.1850   -9.3780 O.3    32  TYR32      -0.2866
     37  N         -9.4190  -62.9650    1.2390 N.3   243  ASN243     -0.1240
     38  CA        -8.3500  -63.4840    2.1470 C.3   243  ASN243      0.1653
     39  C         -6.8010  -63.3300    1.8960 C.2   243  ASN243      0.2266
     40  O         -6.0180  -64.0430    2.5660 O.2   243  ASN243     -0.2867
     41  CB        -8.6360  -64.9800    2.4090 C.3   243  ASN243      0.1155
     42  CG        -8.6170  -65.8170    1.1280 C.2   243  ASN243      0.2627
     43  OD1       -8.8210  -67.0270    1.1640 O.2   243  ASN243     -0.2716
     44  ND2       -8.3810  -65.1680   -0.0190 N.am  243  ASN243     -0.0877
     45  N         -6.3650  -63.6070   -1.6600 N.3   245  LEU245     -0.1245
     46  CA        -6.0840  -64.0710   -2.9390 C.3   245  LEU245      0.1561
     47  C         -7.3110  -63.5110   -3.7570 C.2   245  LEU245      0.2260
     48  O         -8.3240  -63.3170   -3.1350 O.2   245  LEU245     -0.2867
     49  CB        -6.2340  -65.5620   -2.8330 C.3   245  LEU245      0.0270
     50  CG        -6.2340  -66.2710   -4.1800 C.3   245  LEU245      0.0019
     51  CD1       -4.8090  -66.3260   -4.7030 C.3   245  LEU245      0.0001
     52  CD2       -6.9660  -67.6190   -4.0970 C.3   245  LEU245      0.0001
     53  N         -3.9860  -64.0800  -11.1650 N.3   273  VAL273     -0.1231
     54  CA        -4.1930  -64.2900   -9.7380 C.3   273  VAL273      0.1692
     55  C         -3.3520  -63.2060   -9.0550 C.2   273  VAL273      0.2592
     56  O         -2.2310  -62.9080   -9.5110 O.2   273  VAL273     -0.2718
     57  CB        -3.4380  -65.5190   -9.1640 C.3   273  VAL273      0.0266
     58  CG1       -4.2610  -66.2670   -8.1240 C.3   273  VAL273      0.0020
     59  CG2       -2.8910  -66.3990  -10.1980 C.3   273  VAL273      0.0020
     60  N         -3.8270  -62.6760   -7.9390 N.am  274  ASN274     -0.1960
     61  CA        -2.8410  -62.2740   -6.9570 C.3   274  ASN274      0.1819
     62  C         -3.2480  -62.4420   -5.5360 C.2   274  ASN274      0.2621
     63  O         -4.3790  -62.8150   -5.1990 O.2   274  ASN274     -0.2715
     64  CB        -2.2360  -60.8880   -7.2010 C.3   274  ASN274      0.1195
     65  CG        -3.1570  -59.8020   -6.8470 C.2   274  ASN274      0.2630
     66  OD1       -4.3040  -59.8120   -7.3100 O.2   274  ASN274     -0.2716
     67  ND2       -2.6990  -58.8570   -6.0020 N.am  274  ASN274     -0.0877
     68  N         -2.2610  -62.2110   -4.7100 N.am  275  TYR275     -0.1974
     69  CA        -2.3840  -62.4300   -3.3310 C.3   275  TYR275      0.1639
     70  C         -1.7110  -61.2650   -2.5690 C.2   275  TYR275      0.2290
     71  O         -0.5310  -60.9980   -2.7550 O.2   275  TYR275     -0.2864
     72  CB        -1.7860  -63.7810   -3.0350 C.3   275  TYR275      0.0560
     73  CG        -2.0100  -64.1200   -1.6210 C.ar  275  TYR275     -0.0198
     74  CD1       -0.9380  -64.1530   -0.7410 C.ar  275  TYR275     -0.0009
     75  CD2       -3.3030  -64.3370   -1.1340 C.ar  275  TYR275     -0.0009
     76  CE1       -1.1260  -64.4170    0.5830 C.ar  275  TYR275      0.0417
     77  CE2       -3.5030  -64.6140    0.1960 C.ar  275  TYR275      0.0417
     78  CZ        -2.3800  -64.6590    1.0570 C.ar  275  TYR275      0.1957
     79  OH        -2.4960  -64.9010    2.4040 O.3   275  TYR275     -0.2866
@<TRIPOS>BOND
     1    18    19    1
     2    15    16    2
     3    15    14    1
     4    21    20    2
     5    24    22    1
     6    19    20    1
     7    19    22    1
     8    14    17    1
     9    14    13    1
    10    20    25   am
    11    22    23    1
    12    31    33   ar
    13    31    30   ar
    14    53    54    1
    15    33    35   ar
    16    25    26    1
    17    29    30    1
    18    29    26    1
    19    13    11   am
    20    30    32   ar
    21    26    27    1
    22    12    11    2
    23    59    57    1
    24    11    10    1
    25    35    36    1
    26    35    34   ar
    27    54    57    1
    28    54    55    1
    29    56    55    2
    30    32    34   ar
    31    57    58    1
    32    55    60   am
    33    27    28    2
    34    10     9    1
    35    60    61    1
    36     9     3   am
    37    66    65    2
    38    64    61    1
    39    64    65    1
    40    61    62    1
    41    65    67   am
    42     3     4    2
    43     3     2    1
    44     2     5    1
    45     2     1    1
    46    62    63    2
    47    62    68   am
    48     5     7    1
    49     5     6    1
    50    68    69    1
    51    51    50    1
    52    50    52    1
    53    50    49    1
    54     8     6    1
    55    47    48    2
    56    47    46    1
    57    69    72    1
    58    69    70    1
    59    72    73    1
    60    46    49    1
    61    46    45    1
    62    71    70    2
    63    73    75   ar
    64    73    74   ar
    65    75    77   ar
    66    74    76   ar
    67    44    42   am
    68    77    78   ar
    69    76    78   ar
    70    78    79    1
    71    42    43    2
    72    42    41    1
    73    37    38    1
    74    39    38    1
    75    39    40    2
    76    38    41    1
