@<TRIPOS>MOLECULE
tmp/2iwvD21.pdb
 163 156 0 0 0
SMALL
GASTEIGER

@<TRIPOS>ATOM
      1  N          1.8710  -61.5560  -38.8590 N.3    21  GLU21      -0.1245
      2  CA         3.1270  -61.3610  -38.1730 C.3    21  GLU21       0.1567
      3  C          3.1130  -61.9440  -36.7470 C.2    21  GLU21       0.2260
      4  O          4.1560  -62.3470  -36.2680 O.2    21  GLU21      -0.2867
      5  CB         3.5210  -59.8690  -38.2230 C.3    21  GLU21       0.0388
      6  CG         4.3990  -59.3720  -37.0610 C.3    21  GLU21       0.1160
      7  CD         5.5850  -58.4940  -37.5010 C.2    21  GLU21       0.3649
      8  OE1        6.7540  -58.9070  -37.2880 O.co2  21  GLU21      -0.2457
      9  OE2        5.3560  -57.3940  -38.0510 O.co2  21  GLU21      -0.2457
     10  N         10.2780  -63.9230  -33.1350 N.3    61  THR61      -0.1218
     11  CA        11.0070  -62.8500  -32.4490 C.3    61  THR61       0.1862
     12  C         10.2060  -62.4270  -31.2380 C.2    61  THR61       0.2287
     13  O          9.0100  -62.0980  -31.3360 O.2    61  THR61      -0.2866
     14  CB        11.2600  -61.7010  -33.4010 C.3    61  THR61       0.1770
     15  OG1       12.2340  -62.1040  -34.3750 O.3    61  THR61      -0.2211
     16  CG2       11.7910  -60.4920  -32.6690 C.3    61  THR61       0.0375
     17  N         15.5770  -58.4530  -26.7000 N.3    93  TYR93      -0.1241
     18  CA        15.0050  -59.0470  -27.8860 C.3    93  TYR93       0.1605
     19  C         15.8070  -60.2330  -28.3740 C.2    93  TYR93       0.2264
     20  O         17.0290  -60.2570  -28.2690 O.2    93  TYR93      -0.2867
     21  CB        14.8910  -58.0340  -29.0060 C.3    93  TYR93       0.0534
     22  CG        13.5920  -57.2640  -29.0470 C.ar   93  TYR93      -0.0201
     23  CD1       13.3800  -56.1590  -28.2490 C.ar   93  TYR93      -0.0009
     24  CD2       12.5680  -57.6380  -29.9160 C.ar   93  TYR93      -0.0009
     25  CE1       12.1590  -55.4430  -28.2940 C.ar   93  TYR93       0.0417
     26  CE2       11.3510  -56.9300  -29.9750 C.ar   93  TYR93       0.0417
     27  CZ        11.1590  -55.8410  -29.1680 C.ar   93  TYR93       0.1957
     28  OH         9.9470  -55.1460  -29.2390 O.3    93  TYR93      -0.2866
     29  N         15.8010  -62.3290  -31.8650 N.3    95  TYR95      -0.1241
     30  CA        15.3500  -62.4070  -33.2420 C.3    95  TYR95       0.1605
     31  C         15.3580  -63.8100  -33.8490 C.2    95  TYR95       0.2264
     32  O         16.1990  -64.6410  -33.5280 O.2    95  TYR95      -0.2867
     33  CB        16.1750  -61.4450  -34.0810 C.3    95  TYR95       0.0534
     34  CG        15.9330  -60.0410  -33.6660 C.ar   95  TYR95      -0.0201
     35  CD1       16.7560  -59.4390  -32.7370 C.ar   95  TYR95      -0.0009
     36  CD2       14.8220  -59.3370  -34.1490 C.ar   95  TYR95      -0.0009
     37  CE1       16.5280  -58.1500  -32.3070 C.ar   95  TYR95       0.0417
     38  CE2       14.5630  -58.0640  -33.7360 C.ar   95  TYR95       0.0417
     39  CZ        15.4130  -57.4640  -32.8090 C.ar   95  TYR95       0.1957
     40  OH        15.1250  -56.1780  -32.3810 O.3    95  TYR95      -0.2866
     41  N         17.9050  -51.4390  -34.6420 N.3   140  THR140     -0.1203
     42  CA        17.5540  -52.8440  -34.8020 C.3   140  THR140      0.1994
     43  C         16.1750  -53.1250  -34.1840 C.2   140  THR140      0.2619
     44  O         15.3590  -53.8680  -34.7160 O.2   140  THR140     -0.2717
     45  CB        18.6870  -53.7960  -34.2920 C.3   140  THR140      0.1784
     46  OG1       18.2350  -54.5790  -33.1870 O.3   140  THR140     -0.2211
     47  CG2       19.9190  -53.0220  -33.9160 C.3   140  THR140      0.0376
     48  N         15.9320  -52.4770  -33.0660 N.am  141  THR141     -0.1938
     49  CA        14.6690  -52.5320  -32.3320 C.3   141  THR141      0.2028
     50  C         13.5030  -51.8350  -33.0550 C.2   141  THR141      0.2643
     51  O         12.3560  -52.2990  -33.0020 O.2   141  THR141     -0.2714
     52  CB        14.9460  -51.9560  -30.9550 C.3   141  THR141      0.1808
     53  OG1       15.0680  -53.0370  -30.0140 O.3   141  THR141     -0.2208
     54  CG2       13.9270  -50.9330  -30.5350 C.3   141  THR141      0.0379
     55  N         13.7980  -50.7220  -33.7210 N.am  142  GLY142     -0.1939
     56  CA        12.8120  -50.0500  -34.5330 C.3   142  GLY142      0.2014
     57  C         11.7950  -49.2690  -33.7290 C.2   142  GLY142      0.2639
     58  O         10.7080  -48.9130  -34.2620 O.2   142  GLY142     -0.2714
     59  N         12.1020  -49.0190  -32.4550 N.am  143  TYR143     -0.1959
     60  CA        11.2260  -48.2290  -31.6100 C.3   143  TYR143      0.1771
     61  C         11.5700  -46.7830  -31.8560 C.2   143  TYR143      0.2619
     62  O         12.5390  -46.4780  -32.5170 O.2   143  TYR143     -0.2715
     63  CB        11.4280  -48.5340  -30.1260 C.3   143  TYR143      0.0574
     64  CG        10.7320  -49.7410  -29.5710 C.ar  143  TYR143     -0.0198
     65  CD1       11.0040  -51.0040  -30.0710 C.ar  143  TYR143     -0.0009
     66  CD2        9.8480  -49.6270  -28.5170 C.ar  143  TYR143     -0.0009
     67  CE1       10.4160  -52.1400  -29.5420 C.ar  143  TYR143      0.0417
     68  CE2        9.2550  -50.7420  -27.9610 C.ar  143  TYR143      0.0417
     69  CZ         9.5440  -52.0120  -28.4860 C.ar  143  TYR143      0.1957
     70  OH         8.9570  -53.1970  -27.9740 O.3   143  TYR143     -0.2866
     71  N         10.7510  -45.8890  -31.3450 N.am  144  ALA144     -0.1977
     72  CA        11.0320  -44.4540  -31.4170 C.3   144  ALA144      0.1597
     73  C         11.6840  -44.0170  -30.0980 C.2   144  ALA144      0.2287
     74  O         11.4710  -44.6430  -29.0370 O.2   144  ALA144     -0.2864
     75  CB         9.7460  -43.7030  -31.6680 C.3   144  ALA144      0.0319
     76  N          8.1520  -41.3130  -26.1780 N.3   147  ARG147     -0.1245
     77  CA         6.7260  -41.4090  -26.3250 C.3   147  ARG147      0.1563
     78  C          6.0250  -40.8740  -25.1100 C.2   147  ARG147      0.2260
     79  O          6.6380  -40.7660  -24.0610 O.2   147  ARG147     -0.2867
     80  CB         6.3010  -42.8320  -26.7840 C.3   147  ARG147      0.0307
     81  CG         5.7620  -43.8160  -25.7930 C.3   147  ARG147      0.0489
     82  CD         5.0380  -44.9730  -26.4780 C.3   147  ARG147      0.2205
     83  NE         5.9560  -45.7840  -27.2680 N.pl3 147  ARG147     -0.0865
     84  CZ         5.9180  -47.1160  -27.3870 C.cat 147  ARG147      0.5346
     85  NH1        6.8250  -47.7220  -28.1200 N.pl3 147  ARG147      0.1354
     86  NH2        5.0140  -47.8520  -26.7660 N.pl3 147  ARG147      0.1354
     87  N          2.0420  -40.7440  -23.0640 N.3   149  GLU149     -0.1245
     88  CA         0.7980  -41.4860  -23.0080 C.3   149  GLU149      0.1567
     89  C         -0.0110  -40.9950  -21.8510 C.2   149  GLU149      0.2260
     90  O          0.5110  -40.7900  -20.7770 O.2   149  GLU149     -0.2867
     91  CB         1.1010  -42.9660  -22.8870 C.3   149  GLU149      0.0388
     92  CG        -0.0950  -43.8910  -22.7690 C.3   149  GLU149      0.1160
     93  CD         0.3890  -45.3080  -22.4590 C.2   149  GLU149      0.3649
     94  OE1        1.5080  -45.4890  -21.7790 O.co2 149  GLU149     -0.2457
     95  OE2       -0.3500  -46.2360  -22.8790 O.co2 149  GLU149     -0.2457
     96  N         -7.7870  -40.9290  -23.9190 N.3   169  TYR169     -0.1241
     97  CA        -6.5070  -41.6630  -23.9150 C.3   169  TYR169      0.1605
     98  C         -5.6430  -41.2270  -25.1040 C.2   169  TYR169      0.2264
     99  O         -6.1220  -41.0550  -26.1990 O.2   169  TYR169     -0.2867
    100  CB        -6.7290  -43.1990  -23.9060 C.3   169  TYR169      0.0534
    101  CG        -5.4640  -44.0190  -24.1150 C.ar  169  TYR169     -0.0201
    102  CD1       -5.0630  -44.4200  -25.3840 C.ar  169  TYR169     -0.0009
    103  CD2       -4.6620  -44.3620  -23.0420 C.ar  169  TYR169     -0.0009
    104  CE1       -3.9130  -45.2140  -25.5960 C.ar  169  TYR169      0.0417
    105  CE2       -3.4740  -45.1260  -23.2040 C.ar  169  TYR169      0.0417
    106  CZ        -3.1020  -45.5240  -24.4580 C.ar  169  TYR169      0.1957
    107  OH        -1.9560  -46.2670  -24.5320 O.3   169  TYR169     -0.2866
    108  N         -1.6590  -41.9830  -26.9440 N.3   171  GLU171     -0.1245
    109  CA        -0.2950  -42.5320  -26.9970 C.3   171  GLU171      0.1567
    110  C          0.4000  -41.9670  -28.2420 C.2   171  GLU171      0.2260
    111  O         -0.1720  -41.9400  -29.3150 O.2   171  GLU171     -0.2867
    112  CB        -0.3160  -44.0730  -26.9880 C.3   171  GLU171      0.0388
    113  CG         1.0010  -44.7170  -26.5210 C.3   171  GLU171      0.1160
    114  CD         1.1570  -46.2210  -26.8810 C.2   171  GLU171      0.3649
    115  OE1        0.3480  -46.7800  -27.7390 O.co2 171  GLU171     -0.2457
    116  OE2        2.1230  -46.8530  -26.3200 O.co2 171  GLU171     -0.2457
    117  N          9.3400  -46.0480  -36.1090 N.3   183  GLY183     -0.1225
    118  CA         8.2120  -46.3920  -35.2310 C.3   183  GLY183      0.1811
    119  C          7.4000  -45.2640  -34.6880 C.2   183  GLY183      0.2280
    120  O          6.7760  -45.3710  -33.6390 O.2   183  GLY183     -0.2866
    121  N          4.1270  -43.0460  -34.3840 N.3   185  PHE185     -0.1241
    122  CA         2.7340  -43.5080  -34.3460 C.3   185  PHE185      0.1605
    123  C          1.8560  -42.5780  -33.5030 C.2   185  PHE185      0.2264
    124  O          2.3510  -41.8180  -32.7230 O.2   185  PHE185     -0.2867
    125  CB         2.6380  -44.9740  -33.8950 C.3   185  PHE185      0.0534
    126  CG         2.6450  -45.1480  -32.4090 C.ar  185  PHE185     -0.0203
    127  CD1        3.8460  -45.4670  -31.7300 C.ar  185  PHE185     -0.0042
    128  CD2        1.5040  -44.9750  -31.6750 C.ar  185  PHE185     -0.0042
    129  CE1        3.8470  -45.5890  -30.4020 C.ar  185  PHE185     -0.0003
    130  CE2        1.5230  -45.1110  -30.3190 C.ar  185  PHE185     -0.0003
    131  CZ         2.7370  -45.4290  -29.6820 C.ar  185  PHE185     -0.0000
    132  N         -2.0990  -42.5990  -31.4730 N.3   187  THR187     -0.1218
    133  CA        -3.3950  -43.1940  -31.0910 C.3   187  THR187      0.1862
    134  C         -4.1180  -42.2520  -30.1770 C.2   187  THR187      0.2287
    135  O         -3.5440  -41.8600  -29.2040 O.2   187  THR187     -0.2866
    136  CB        -3.1020  -44.4940  -30.2870 C.3   187  THR187      0.1770
    137  OG1       -2.6900  -45.4870  -31.1910 O.3   187  THR187     -0.2211
    138  CG2       -4.2720  -45.0980  -29.6320 C.3   187  THR187      0.0375
    139  N         -5.7950  -42.1120  -35.3570 N.3   213  ARG213     -0.1245
    140  CA        -4.7890  -43.1200  -35.1800 C.3   213  ARG213      0.1563
    141  C         -3.9780  -43.3040  -36.4490 C.2   213  ARG213      0.2260
    142  O         -4.5000  -43.5650  -37.5080 O.2   213  ARG213     -0.2867
    143  CB        -5.5240  -44.3860  -34.7910 C.3   213  ARG213      0.0307
    144  CG        -4.7440  -45.6440  -34.8340 C.3   213  ARG213      0.0489
    145  CD        -5.4490  -46.6920  -33.9980 C.3   213  ARG213      0.2205
    146  NE        -4.5060  -47.7200  -33.6210 N.pl3 213  ARG213     -0.0865
    147  CZ        -4.4910  -48.3450  -32.4510 C.cat 213  ARG213      0.5346
    148  NH1       -5.3910  -48.0930  -31.5090 N.pl3 213  ARG213      0.1354
    149  NH2       -3.5720  -49.2630  -32.2430 N.pl3 213  ARG213      0.1354
    150  N          5.1430  -47.7800  -39.9360 N.3   217  TRP217     -0.1241
    151  CA         6.1140  -48.8430  -39.8290 C.3   217  TRP217      0.1605
    152  C          6.8380  -49.1060  -41.1420 C.2   217  TRP217      0.2264
    153  O          7.8930  -49.6930  -41.1420 O.2   217  TRP217     -0.2867
    154  CB         5.4440  -50.1260  -39.3680 C.3   217  TRP217      0.0550
    155  CG         4.3700  -49.9860  -38.3430 C.ar  217  TRP217      0.0003
    156  CD1        3.0340  -50.2280  -38.5260 C.ar  217  TRP217      0.0946
    157  CD2        4.5290  -49.6370  -36.9660 C.ar  217  TRP217      0.0152
    158  NE1        2.3440  -50.0250  -37.3540 N.ar  217  TRP217     -0.2442
    159  CE2        3.2300  -49.6460  -36.3810 C.ar  217  TRP217      0.0810
    160  CE3        5.6300  -49.2970  -36.1700 C.ar  217  TRP217      0.0012
    161  CZ2        3.0080  -49.3210  -35.0320 C.ar  217  TRP217      0.0191
    162  CZ3        5.4080  -48.9620  -34.8150 C.ar  217  TRP217      0.0001
    163  CH2        4.1220  -48.9910  -34.2630 C.ar  217  TRP217      0.0015
@<TRIPOS>BOND
     1   152   153    2
     2   152   151    1
     3   150   151    1
     4   151   154    1
     5   154   155    1
     6     1     2    1
     7   156   155   ar
     8   156   158   ar
     9   155   157   ar
    10     5     2    1
    11     5     6    1
    12     2     3    1
    13     9     7   ar
    14   142   141    2
    15     7     8   ar
    16     7     6    1
    17   158   159   ar
    18   157   159   ar
    19   157   160   ar
    20     3     4    2
    21   141   140    1
    22   159   161   ar
    23   160   162   ar
    24   117   118    1
    25   139   140    1
    26   118   119    1
    27   140   143    1
    28   161   163   ar
    29   144   143    1
    30   144   145    1
    31   162   163   ar
    32    42    41    1
    33    42    45    1
    34    42    43    1
    35    44    43    2
    36   119   120    2
    37    56    57    1
    38    56    55    1
    39   121   122    1
    40    15    14    1
    41   122   125    1
    42   122   123    1
    43    45    47    1
    44    45    46    1
    45    58    57    2
    46    43    48   am
    47    36    38   ar
    48    36    34   ar
    49    33    34    1
    50    33    30    1
    51   145   146    1
    52   125   126    1
    53    31    32    2
    54    31    30    1
    55    38    39   ar
    56    57    59   am
    57    55    50   am
    58    34    35   ar
    59   146   147    2
    60   123   124    2
    61    14    16    1
    62    14    11    1
    63    30    29    1
    64    10    11    1
    65    48    49    1
    66    50    51    2
    67    50    49    1
    68    39    40    1
    69    39    37   ar
    70    35    37   ar
    71    62    61    2
    72    59    60    1
    73   147   149    1
    74   147   148    1
    75    11    12    1
    76   126   127   ar
    77   126   128   ar
    78    49    52    1
    79    61    60    1
    80    61    71   am
    81   127   129   ar
    82   128   130   ar
    83    75    72    1
    84    60    63    1
    85   132   133    1
    86    72    71    1
    87    72    73    1
    88    13    12    2
    89   137   136    1
    90   133   136    1
    91   133   134    1
    92    52    54    1
    93    52    53    1
    94   129   131   ar
    95   130   131   ar
    96   136   138    1
    97   134   135    2
    98    63    64    1
    99    73    74    2
   100    65    64   ar
   101    65    67   ar
   102    26    24   ar
   103    26    27   ar
   104    24    22   ar
   105    64    66   ar
   106    67    69   ar
   107   111   110    2
   108    28    27    1
   109    27    25   ar
   110    22    21    1
   111    22    23   ar
   112    21    18    1
   113    66    68   ar
   114    69    70    1
   115    69    68   ar
   116    19    20    2
   117    19    18    1
   118    25    23   ar
   119   110   109    1
   120    85    84    1
   121    18    17    1
   122   115   114   ar
   123    84    83    2
   124    84    86    1
   125    83    82    1
   126   109   112    1
   127   109   108    1
   128   112   113    1
   129   114   113    1
   130   114   116   ar
   131    80    77    1
   132    80    81    1
   133    82    81    1
   134    77    76    1
   135    77    78    1
   136    99    98    2
   137   104   102   ar
   138   104   106   ar
   139   102   101   ar
   140    78    79    2
   141    98    97    1
   142   107   106    1
   143   106   105   ar
   144   101   100    1
   145   101   103   ar
   146    96    97    1
   147    97   100    1
   148   105   103   ar
   149    87    88    1
   150    88    91    1
   151    88    89    1
   152    91    92    1
   153    95    93   ar
   154    92    93    1
   155    93    94   ar
   156    89    90    2
