@<TRIPOS>MOLECULE
tmp/2iwvC18.pdb
 111 105 0 0 0
SMALL
GASTEIGER

@<TRIPOS>ATOM
      1  N         28.5770  -51.6610  -80.0590 N.3    16  VAL16      -0.1245
      2  CA        29.8620  -52.2860  -80.2940 C.3    16  VAL16       0.1561
      3  C         30.6880  -51.1830  -80.9350 C.2    16  VAL16       0.2260
      4  O         30.2510  -50.5350  -81.9280 O.2    16  VAL16      -0.2867
      5  CB        29.7480  -53.4290  -81.3100 C.3    16  VAL16       0.0252
      6  CG1       31.0800  -54.1420  -81.5190 C.3    16  VAL16       0.0019
      7  CG2       28.6940  -54.4310  -80.8630 C.3    16  VAL16       0.0019
      8  N         27.6970  -52.7940  -87.8000 N.3    21  GLU21      -0.1245
      9  CA        26.2910  -52.9600  -88.1590 C.3    21  GLU21       0.1567
     10  C         25.3810  -52.0830  -87.2760 C.2    21  GLU21       0.2260
     11  O         24.2790  -51.7380  -87.6890 O.2    21  GLU21      -0.2867
     12  CB        25.9050  -54.4550  -88.1380 C.3    21  GLU21       0.0388
     13  CG        24.4220  -54.7510  -87.9020 C.3    21  GLU21       0.1160
     14  CD        23.8330  -55.7970  -88.8660 C.2    21  GLU21       0.3649
     15  OE1       22.8840  -55.4540  -89.6200 O.co2  21  GLU21      -0.2457
     16  OE2       24.3040  -56.9580  -88.8650 O.co2  21  GLU21      -0.2457
     17  N         17.5230  -70.0740  -90.4410 N.3   182  ASN182     -0.1240
     18  CA        17.8450  -68.7590  -89.8850 C.3   182  ASN182      0.1653
     19  C         18.1020  -68.6670  -88.3690 C.2   182  ASN182      0.2266
     20  O         17.4180  -69.3020  -87.5730 O.2   182  ASN182     -0.2867
     21  CB        16.7750  -67.7250  -90.2810 C.3   182  ASN182      0.1155
     22  CG        16.9170  -67.2310  -91.7290 C.2   182  ASN182      0.2627
     23  OD1       15.9150  -66.9060  -92.3790 O.2   182  ASN182     -0.2716
     24  ND2       18.1690  -67.1550  -92.2310 N.am  182  ASN182     -0.0877
     25  N         29.1410  -70.4380  -76.2130 N.3   213  ARG213     -0.1245
     26  CA        28.3700  -69.5440  -76.9960 C.3   213  ARG213      0.1563
     27  C         28.6830  -69.6970  -78.4600 C.2   213  ARG213      0.2260
     28  O         29.8290  -69.6650  -78.8600 O.2   213  ARG213     -0.2867
     29  CB        28.6540  -68.1360  -76.4800 C.3   213  ARG213      0.0307
     30  CG        28.2190  -67.0050  -77.3170 C.3   213  ARG213      0.0489
     31  CD        28.2480  -65.7510  -76.4670 C.3   213  ARG213      0.2205
     32  NE        27.4120  -64.7290  -77.0560 N.pl3 213  ARG213     -0.0865
     33  CZ        26.6960  -63.8750  -76.3520 C.cat 213  ARG213      0.5346
     34  NH1       26.7340  -63.9040  -75.0330 N.pl3 213  ARG213      0.1354
     35  NH2       25.9640  -62.9800  -76.9780 N.pl3 213  ARG213      0.1354
     36  N         27.0540  -68.8220  -82.6980 N.3   215  SER215     -0.1217
     37  CA        26.1260  -68.1840  -83.6070 C.3   215  SER215      0.1889
     38  C         26.2780  -68.7730  -85.0080 C.2   215  SER215      0.2288
     39  O         27.2130  -69.4990  -85.2760 O.2   215  SER215     -0.2866
     40  CB        26.4200  -66.6930  -83.6170 C.3   215  SER215      0.2089
     41  OG        27.6040  -66.4660  -84.3490 O.3   215  SER215     -0.2183
     42  N         24.9500  -66.7000  -88.1340 N.3   217  TRP217     -0.1227
     43  CA        24.2520  -65.7150  -88.9250 C.3   217  TRP217      0.1737
     44  C         24.6670  -65.7860  -90.3880 C.2   217  TRP217      0.2595
     45  O         23.9340  -65.3050  -91.2510 O.2   217  TRP217     -0.2718
     46  CB        24.5190  -64.2910  -88.3990 C.3   217  TRP217      0.0564
     47  CG        24.5510  -64.1220  -86.8940 C.ar  217  TRP217      0.0003
     48  CD1       25.6380  -63.8360  -86.1420 C.ar  217  TRP217      0.0946
     49  CD2       23.4440  -64.2290  -85.9850 C.ar  217  TRP217      0.0152
     50  NE1       25.2970  -63.7750  -84.8140 N.ar  217  TRP217     -0.2442
     51  CE2       23.9550  -64.0250  -84.6870 C.ar  217  TRP217      0.0810
     52  CE3       22.0800  -64.5020  -86.1390 C.ar  217  TRP217      0.0012
     53  CZ2       23.1470  -64.0740  -83.5400 C.ar  217  TRP217      0.0191
     54  CZ3       21.2710  -64.5580  -84.9870 C.ar  217  TRP217      0.0001
     55  CH2       21.8070  -64.3350  -83.7180 C.ar  217  TRP217      0.0015
     56  N         25.8450  -66.3580  -90.6610 N.am  218  ASP218     -0.1974
     57  CA        26.3660  -66.4990  -92.0290 C.3   218  ASP218      0.1709
     58  C         26.1920  -67.9440  -92.5810 C.2   218  ASP218      0.2293
     59  O         26.8740  -68.3730  -93.5260 O.2   218  ASP218     -0.2864
     60  CB        27.8390  -66.0390  -92.1050 C.3   218  ASP218      0.1436
     61  CG        28.8050  -66.9910  -91.3950 C.2   218  ASP218      0.3671
     62  OD1       30.0130  -66.6860  -91.3500 O.co2 218  ASP218     -0.2456
     63  OD2       28.3920  -68.0600  -90.8780 O.co2 218  ASP218     -0.2456
     64  N         32.3390  -68.0810  -79.5740 N.3   228  HIS228     -0.1241
     65  CA        32.6000  -66.7830  -78.9620 C.3   228  HIS228      0.1621
     66  C         32.8750  -66.9490  -77.4970 C.2   228  HIS228      0.2264
     67  O         32.5140  -67.9630  -76.9300 O.2   228  HIS228     -0.2867
     68  CB        31.3830  -65.8380  -79.0840 C.3   228  HIS228      0.0745
     69  CG        30.8540  -65.6870  -80.4680 C.ar  228  HIS228      0.0817
     70  ND1       31.5640  -65.0680  -81.4740 N.ar  228  HIS228     -0.2268
     71  CD2       29.6630  -66.0330  -81.0060 C.ar  228  HIS228      0.1154
     72  CE1       30.8380  -65.0620  -82.5830 C.ar  228  HIS228      0.1986
     73  NE2       29.6850  -65.6570  -82.3290 N.ar  228  HIS228     -0.2212
     74  N         32.1450  -64.2280  -74.2470 N.3   230  PHE230     -0.1241
     75  CA        31.7590  -62.9060  -73.8100 C.3   230  PHE230      0.1605
     76  C         31.8130  -62.8180  -72.2970 C.2   230  PHE230      0.2264
     77  O         31.3380  -63.7160  -71.6030 O.2   230  PHE230     -0.2867
     78  CB        30.3240  -62.6170  -74.2520 C.3   230  PHE230      0.0534
     79  CG        30.1770  -62.3770  -75.7070 C.ar  230  PHE230     -0.0203
     80  CD1       31.1870  -62.7040  -76.5840 C.ar  230  PHE230     -0.0042
     81  CD2       28.9940  -61.8060  -76.2140 C.ar  230  PHE230     -0.0042
     82  CE1       31.0520  -62.4590  -77.9700 C.ar  230  PHE230     -0.0003
     83  CE2       28.8530  -61.5600  -77.5870 C.ar  230  PHE230     -0.0003
     84  CZ        29.8650  -61.8980  -78.4700 C.ar  230  PHE230     -0.0000
     85  N         34.0000  -59.0490  -76.0180 N.3   256  GLN256     -0.1245
     86  CA        33.4890  -59.9990  -76.9740 C.3   256  GLN256      0.1566
     87  C         34.6550  -60.5830  -77.7630 C.2   256  GLN256      0.2260
     88  O         35.0890  -60.0000  -78.7420 O.2   256  GLN256     -0.2867
     89  CB        32.5200  -59.2720  -77.9290 C.3   256  GLN256      0.0367
     90  CG        31.3560  -58.5350  -77.2580 C.3   256  GLN256      0.0905
     91  CD        30.2830  -58.0960  -78.2490 C.2   256  GLN256      0.2608
     92  OE1       30.5110  -58.0230  -79.4600 O.2   256  GLN256     -0.2717
     93  NE2       29.0850  -57.8360  -77.7370 N.am  256  GLN256     -0.0878
     94  N         35.9270  -63.4620  -80.2940 N.3   258  HIS258     -0.1241
     95  CA        35.5050  -64.4650  -81.2350 C.3   258  HIS258      0.1621
     96  C         36.6320  -65.4290  -81.5350 C.2   258  HIS258      0.2264
     97  O         37.8000  -65.0990  -81.3530 O.2   258  HIS258     -0.2867
     98  CB        35.0270  -63.7960  -82.5010 C.3   258  HIS258      0.0745
     99  CG        34.3290  -62.4970  -82.2680 C.ar  258  HIS258      0.0817
    100  ND1       32.9690  -62.4060  -82.0830 N.ar  258  HIS258     -0.2268
    101  CD2       34.8010  -61.2330  -82.2100 C.ar  258  HIS258      0.1154
    102  CE1       32.6360  -61.1430  -81.9190 C.ar  258  HIS258      0.1986
    103  NE2       33.7290  -60.4110  -81.9890 N.ar  258  HIS258     -0.2212
    104  N         35.7810  -57.6280  -79.9490 N.3   264  ASP264     -0.1239
    105  CA        34.9580  -56.4170  -79.9180 C.3   264  ASP264      0.1674
    106  C         34.8250  -55.9050  -78.4970 C.2   264  ASP264      0.2266
    107  O         35.0770  -56.6540  -77.5320 O.2   264  ASP264     -0.2867
    108  CB        33.5690  -56.6890  -80.4790 C.3   264  ASP264      0.1410
    109  CG        33.5620  -56.8330  -81.9960 C.2   264  ASP264      0.3668
    110  OD1       34.1050  -55.9860  -82.7450 O.co2 264  ASP264     -0.2456
    111  OD2       32.9720  -57.8140  -82.4830 O.co2 264  ASP264     -0.2456
@<TRIPOS>BOND
     1    59    58    2
     2    58    57    1
     3    23    22    2
     4    24    22   am
     5    60    57    1
     6    60    61    1
     7    57    56    1
     8    22    21    1
     9    61    62   ar
    10    61    63   ar
    11    45    44    2
    12    56    44   am
    13    17    18    1
    14    44    43    1
    15    21    18    1
    16    18    19    1
    17    15    14   ar
    18    43    46    1
    19    43    42    1
    20    14    16   ar
    21    14    13    1
    22    46    47    1
    23    19    20    2
    24     9    12    1
    25     9     8    1
    26     9    10    1
    27    12    13    1
    28    11    10    2
    29    47    48   ar
    30    47    49   ar
    31    48    50   ar
    32    52    49   ar
    33    52    54   ar
    34    49    51   ar
    35    39    38    2
    36    38    37    1
    37    54    55   ar
    38    50    51   ar
    39    51    53   ar
    40    41    40    1
    41    55    53   ar
    42    40    37    1
    43    37    36    1
    44   110   109   ar
    45    72    73   ar
    46    72    70   ar
    47    98    99    1
    48    98    95    1
    49   111   109   ar
    50    73    71   ar
    51    99   101   ar
    52    99   100   ar
    53   101   103   ar
    54   100   102   ar
    55   109   108    1
    56   103   102   ar
    57     4     3    2
    58    96    97    2
    59    96    95    1
    60     6     5    1
    61    70    69   ar
    62     5     7    1
    63     5     2    1
    64    95    94    1
    65    71    69   ar
    66     3     2    1
    67   108   105    1
    68    69    68    1
    69     2     1    1
    70   104   105    1
    71   105   106    1
    72    64    65    1
    73    92    91    2
    74    68    65    1
    75    65    66    1
    76    28    27    2
    77    88    87    2
    78   106   107    2
    79    84    82   ar
    80    84    83   ar
    81    27    26    1
    82    91    93   am
    83    91    90    1
    84    82    80   ar
    85    89    90    1
    86    89    86    1
    87    87    86    1
    88    83    81   ar
    89    66    67    2
    90    30    29    1
    91    30    31    1
    92    32    31    1
    93    32    33    2
    94    26    29    1
    95    26    25    1
    96    35    33    1
    97    86    85    1
    98    80    79   ar
    99    33    34    1
   100    81    79   ar
   101    79    78    1
   102    78    75    1
   103    74    75    1
   104    75    76    1
   105    76    77    2
