@<TRIPOS>MOLECULE
tmp/2iwvD08.pdb
 83 81 0 0 0
SMALL
GASTEIGER

@<TRIPOS>ATOM
      1  N          8.6330  -43.1830  -10.9560 N.3    86  GLY86      -0.1210
      2  CA         9.7950  -43.3360  -11.8330 C.3    86  GLY86       0.1956
      3  C          9.9760  -44.8280  -12.0600 C.2    86  GLY86       0.2612
      4  O          9.4930  -45.6570  -11.2830 O.2    86  GLY86      -0.2717
      5  N         10.6270  -45.2130  -13.1460 N.am   87  GLY87      -0.1956
      6  CA        10.6830  -46.6290  -13.4560 C.3    87  GLY87       0.1869
      7  C         11.6170  -46.8770  -14.5990 C.2    87  GLY87       0.2309
      8  O         12.2040  -45.9650  -15.1760 O.2    87  GLY87      -0.2863
      9  N         13.0420  -45.5270  -19.8230 N.3   109  TRP109     -0.1227
     10  CA        12.9800  -44.8010  -18.5610 C.3   109  TRP109      0.1737
     11  C         11.6510  -44.0960  -18.5180 C.2   109  TRP109      0.2595
     12  O         11.3310  -43.5180  -19.4830 O.2   109  TRP109     -0.2718
     13  CB        14.0920  -43.7610  -18.5650 C.3   109  TRP109      0.0564
     14  CG        15.3900  -44.4180  -18.6240 C.ar  109  TRP109      0.0003
     15  CD1       16.0670  -44.8060  -19.7520 C.ar  109  TRP109      0.0946
     16  CD2       16.1870  -44.8460  -17.5060 C.ar  109  TRP109      0.0152
     17  NE1       17.2380  -45.4290  -19.4080 N.ar  109  TRP109     -0.2442
     18  CE2       17.3450  -45.4610  -18.0340 C.ar  109  TRP109      0.0810
     19  CE3       16.0530  -44.7330  -16.1170 C.ar  109  TRP109      0.0012
     20  CZ2       18.3730  -45.9780  -17.2100 C.ar  109  TRP109      0.0191
     21  CZ3       17.0860  -45.2530  -15.2880 C.ar  109  TRP109      0.0001
     22  CH2       18.2260  -45.8570  -15.8470 C.ar  109  TRP109      0.0015
     23  N         10.9030  -44.1220  -17.4180 N.am  110  LYS110     -0.1966
     24  CA         9.6780  -43.3460  -17.4010 C.3   110  LYS110      0.1728
     25  C          9.5630  -42.4630  -16.1630 C.2   110  LYS110      0.2616
     26  O         10.0940  -42.7650  -15.1190 O.2   110  LYS110     -0.2715
     27  CB         8.4180  -44.2560  -17.5510 C.3   110  LYS110      0.0311
     28  CG         7.5130  -44.1960  -16.3380 C.3   110  LYS110      0.0038
     29  CD         6.7220  -45.4600  -16.2310 C.3   110  LYS110      0.0206
     30  CE         5.5780  -45.2880  -15.2850 C.3   110  LYS110      0.1093
     31  NZ         4.5190  -46.4340  -15.3870 N.3   110  LYS110     -0.1314
     32  N          8.9010  -41.3320  -16.3410 N.am  111  ILE111     -0.1977
     33  CA         8.4810  -40.4580  -15.2530 C.3   111  ILE111      0.1596
     34  C          6.9920  -40.3520  -15.4980 C.2   111  ILE111      0.2287
     35  O          6.6010  -40.1940  -16.6440 O.2   111  ILE111     -0.2864
     36  CB         9.2040  -39.0570  -15.3420 C.3   111  ILE111      0.0276
     37  CG1        8.8880  -38.1950  -14.1240 C.3   111  ILE111      0.0022
     38  CG2        8.7720  -38.3110  -16.5550 C.3   111  ILE111      0.0022
     39  CD1        9.2490  -38.8350  -12.8370 C.3   111  ILE111      0.0001
     40  N          5.8900  -40.2210  -19.5080 N.3   131  MET131     -0.1230
     41  CA         6.8510  -39.7870  -20.5120 C.3   131  MET131      0.1702
     42  C          7.9140  -40.8170  -20.4920 C.2   131  MET131      0.2592
     43  O          8.3600  -41.1900  -19.4190 O.2   131  MET131     -0.2718
     44  CB         7.4040  -38.4000  -20.1770 C.3   131  MET131      0.0401
     45  CG         6.3950  -37.2900  -20.3770 C.3   131  MET131      0.0596
     46  SD         6.7350  -35.9160  -19.2300 S.3   131  MET131     -0.1393
     47  CE         5.8330  -36.4140  -17.7770 C.3   131  MET131      0.0692
     48  N          8.3020  -41.3130  -21.6710 N.am  132  TYR132     -0.1962
     49  CA         9.2030  -42.4710  -21.7560 C.3   132  TYR132      0.1771
     50  C         10.3100  -42.0830  -22.6530 C.2   132  TYR132      0.2619
     51  O         10.0700  -41.4770  -23.6690 O.2   132  TYR132     -0.2715
     52  CB         8.5490  -43.7280  -22.4160 C.3   132  TYR132      0.0574
     53  CG         7.2910  -44.1650  -21.7840 C.ar  132  TYR132     -0.0198
     54  CD1        6.0530  -43.9270  -22.3950 C.ar  132  TYR132     -0.0009
     55  CD2        7.3030  -44.7630  -20.5720 C.ar  132  TYR132     -0.0009
     56  CE1        4.8640  -44.3390  -21.7630 C.ar  132  TYR132      0.0417
     57  CE2        6.1680  -45.1560  -19.8960 C.ar  132  TYR132      0.0417
     58  CZ         4.8930  -44.9470  -20.5620 C.ar  132  TYR132      0.1957
     59  OH         3.7090  -45.2900  -19.9280 O.3   132  TYR132     -0.2866
     60  N         11.5260  -42.4980  -22.2880 N.am  133  LYS133     -0.1977
     61  CA        12.6690  -42.4270  -23.1710 C.3   133  LYS133      0.1596
     62  C         13.1770  -43.8380  -23.4340 C.2   133  LYS133      0.2287
     63  O         13.4250  -44.5840  -22.5050 O.2   133  LYS133     -0.2864
     64  CB        13.7560  -41.5920  -22.5230 C.3   133  LYS133      0.0298
     65  CG        14.7710  -41.1670  -23.4780 C.3   133  LYS133      0.0038
     66  CD        14.2500  -39.9480  -24.2440 C.3   133  LYS133      0.0206
     67  CE        15.0160  -39.7480  -25.5650 C.3   133  LYS133      0.1093
     68  NZ        14.7180  -38.4680  -26.2250 N.3   133  LYS133     -0.1314
     69  N         11.2210  -41.6370  -28.1180 N.3   146  THR146     -0.1218
     70  CA        10.4030  -40.9800  -27.1010 C.3   146  THR146      0.1862
     71  C          8.9110  -41.2470  -27.2780 C.2   146  THR146      0.2287
     72  O          8.4580  -41.4070  -28.4240 O.2   146  THR146     -0.2866
     73  CB        10.5800  -39.4640  -27.1950 C.3   146  THR146      0.1770
     74  OG1       11.9880  -39.1630  -27.0720 O.3   146  THR146     -0.2211
     75  CG2        9.7960  -38.7680  -26.0840 C.3   146  THR146      0.0375
     76  N         12.9370  -37.5630  -30.9100 N.3   176  MET176     -0.1245
     77  CA        13.5460  -36.2540  -30.7400 C.3   176  MET176      0.1570
     78  C         14.8710  -36.0380  -31.4530 C.2   176  MET176      0.2261
     79  O         15.2860  -34.8980  -31.6450 O.2   176  MET176     -0.2867
     80  CB        13.6380  -35.9170  -29.2910 C.3   176  MET176      0.0387
     81  CG        12.2670  -35.6530  -28.7690 C.3   176  MET176      0.0595
     82  SD        12.3840  -35.4410  -27.0240 S.3   176  MET176     -0.1393
     83  CE        13.0090  -33.7700  -26.9780 C.3   176  MET176      0.0692
@<TRIPOS>BOND
     1    79    78    2
     2    78    77    1
     3    76    77    1
     4    77    80    1
     5    80    81    1
     6    81    82    1
     7    72    71    2
     8    69    70    1
     9    71    70    1
    10    73    70    1
    11    73    74    1
    12    73    75    1
    13    82    83    1
    14    68    67    1
    15    67    66    1
    16    66    65    1
    17    51    50    2
    18    65    64    1
    19    62    61    1
    20    62    63    2
    21    61    64    1
    22    61    60    1
    23    50    60   am
    24    50    49    1
    25    52    53    1
    26    52    49    1
    27    54    53   ar
    28    54    56   ar
    29    53    55   ar
    30    56    58   ar
    31    49    48    1
    32    48    42   am
    33    55    57   ar
    34    58    59    1
    35    58    57   ar
    36    41    42    1
    37    41    44    1
    38    41    40    1
    39    42    43    2
    40    45    44    1
    41    45    46    1
    42     9    10    1
    43    15    17   ar
    44    15    14   ar
    45    12    11    2
    46    17    18   ar
    47    46    47    1
    48    14    13    1
    49    14    16   ar
    50    13    10    1
    51    10    11    1
    52    11    23   am
    53    18    16   ar
    54    18    20   ar
    55    27    24    1
    56    27    28    1
    57    16    19   ar
    58    23    24    1
    59    24    25    1
    60    20    22   ar
    61    35    34    2
    62    38    36    1
    63    32    25   am
    64    32    33    1
    65    28    29    1
    66    29    30    1
    67    25    26    2
    68    19    21   ar
    69    22    21   ar
    70    34    33    1
    71    31    30    1
    72    36    33    1
    73    36    37    1
    74     8     7    2
    75     7     6    1
    76    37    39    1
    77     6     5    1
    78     5     3   am
    79     3     2    1
    80     3     4    2
    81     2     1    1
