@<TRIPOS>MOLECULE
tmp/2iwvC23.pdb
 128 117 0 0 0
SMALL
GASTEIGER

@<TRIPOS>ATOM
      1  N         -3.0470  -52.2410  -57.8520 N.3     4  HIS4       -0.1241
      2  CA        -1.8650  -51.4090  -57.8890 C.3     4  HIS4        0.1621
      3  C         -1.2130  -51.4050  -59.2540 C.2     4  HIS4        0.2264
      4  O         -1.2970  -52.3880  -59.9850 O.2     4  HIS4       -0.2867
      5  CB        -0.8930  -51.6760  -56.7360 C.3     4  HIS4        0.0745
      6  CG        -0.4420  -53.0930  -56.5930 C.ar    4  HIS4        0.0817
      7  ND1       -1.2080  -54.0650  -55.9820 N.ar    4  HIS4       -0.2268
      8  CD2        0.7460  -53.6810  -56.8800 C.ar    4  HIS4        0.1154
      9  CE1       -0.5350  -55.2070  -55.9520 C.ar    4  HIS4        0.1986
     10  NE2        0.6600  -54.9990  -56.4800 N.ar    4  HIS4       -0.2212
     11  N          1.9160  -49.6190  -62.0500 N.3     6  ASN6       -0.1240
     12  CA         3.1590  -48.9060  -62.2880 C.3     6  ASN6        0.1653
     13  C          3.1810  -48.4060  -63.6920 C.2     6  ASN6        0.2266
     14  O          2.6950  -49.0820  -64.5730 O.2     6  ASN6       -0.2867
     15  CB         4.3780  -49.8290  -62.1300 C.3     6  ASN6        0.1155
     16  CG         4.4800  -50.4080  -60.7740 C.2     6  ASN6        0.2627
     17  OD1        4.9780  -49.7780  -59.8890 O.2     6  ASN6       -0.2716
     18  ND2        4.0460  -51.6380  -60.6050 N.am    6  ASN6       -0.0877
     19  N         11.9780  -46.0600  -70.1340 N.3    10  MET10      -0.1245
     20  CA        13.4110  -46.3640  -70.1560 C.3    10  MET10       0.1570
     21  C         14.0220  -45.8800  -71.4420 C.2    10  MET10       0.2261
     22  O         13.4200  -45.9620  -72.4850 O.2    10  MET10      -0.2867
     23  CB        13.6630  -47.8700  -70.0400 C.3    10  MET10       0.0387
     24  CG        13.8660  -48.3150  -68.6220 C.3    10  MET10       0.0595
     25  SD        15.4350  -49.2460  -68.3800 S.3    10  MET10      -0.1393
     26  CE        14.8170  -50.9080  -68.7650 C.3    10  MET10       0.0692
     27  N         17.5980  -46.7920  -73.3130 N.3    12  GLU12      -0.1245
     28  CA        18.8560  -47.5420  -73.2310 C.3    12  GLU12       0.1567
     29  C         19.6420  -47.4240  -74.5050 C.2    12  GLU12       0.2260
     30  O         19.1090  -47.0820  -75.5730 O.2    12  GLU12      -0.2867
     31  CB        18.6150  -49.0230  -72.9840 C.3    12  GLU12       0.0388
     32  CG        17.8130  -49.3430  -71.7760 C.3    12  GLU12       0.1160
     33  CD        17.3050  -50.7880  -71.8180 C.2    12  GLU12       0.3649
     34  OE1       17.9270  -51.6700  -71.1510 O.co2  12  GLU12      -0.2457
     35  OE2       16.2890  -51.0340  -72.5420 O.co2  12  GLU12      -0.2457
     36  N          6.0810  -48.4540  -70.4140 N.3    32  TYR32      -0.1241
     37  CA         5.3900  -49.6670  -69.9690 C.3    32  TYR32       0.1605
     38  C          4.3800  -49.2840  -68.9120 C.2    32  TYR32       0.2264
     39  O          4.5480  -48.3080  -68.2290 O.2    32  TYR32      -0.2867
     40  CB         6.4040  -50.7000  -69.4240 C.3    32  TYR32       0.0534
     41  CG         7.1630  -50.2370  -68.2100 C.ar   32  TYR32      -0.0201
     42  CD1        8.4630  -49.7400  -68.3220 C.ar   32  TYR32      -0.0009
     43  CD2        6.5700  -50.2750  -66.9370 C.ar   32  TYR32      -0.0009
     44  CE1        9.1590  -49.2890  -67.1860 C.ar   32  TYR32       0.0417
     45  CE2        7.2340  -49.8310  -65.8110 C.ar   32  TYR32       0.0417
     46  CZ         8.5400  -49.3390  -65.9170 C.ar   32  TYR32       0.1957
     47  OH         9.2210  -48.8890  -64.7540 O.3    32  TYR32      -0.2866
     48  N          1.6240  -51.2720  -65.9760 N.3    34  ASN34      -0.1240
     49  CA         1.1000  -52.5330  -65.4720 C.3    34  ASN34       0.1653
     50  C          0.2080  -52.4500  -64.2560 C.2    34  ASN34       0.2266
     51  O          0.2650  -51.5220  -63.4790 O.2    34  ASN34      -0.2867
     52  CB         2.2260  -53.5460  -65.2430 C.3    34  ASN34       0.1155
     53  CG         3.0980  -53.1680  -64.1090 C.2    34  ASN34       0.2627
     54  OD1        2.6630  -53.0740  -62.9670 O.2    34  ASN34      -0.2716
     55  ND2        4.3180  -52.8900  -64.4130 N.am   34  ASN34      -0.0877
     56  N         -1.8190  -60.0670  -62.7980 N.3    41  ARG41      -0.1245
     57  CA        -0.9240  -58.9860  -63.0940 C.3    41  ARG41       0.1563
     58  C         -0.9910  -58.9230  -64.5800 C.2    41  ARG41       0.2260
     59  O         -0.9750  -59.9450  -65.2420 O.2    41  ARG41      -0.2867
     60  CB         0.4970  -59.3260  -62.6700 C.3    41  ARG41       0.0307
     61  CG         1.3120  -58.1450  -62.2580 C.3    41  ARG41       0.0489
     62  CD         2.1710  -57.6490  -63.3380 C.3    41  ARG41       0.2205
     63  NE         3.3940  -57.0630  -62.7770 N.pl3  41  ARG41      -0.0865
     64  CZ         4.5390  -56.8920  -63.4530 C.cat  41  ARG41       0.5346
     65  NH1        4.6460  -57.2560  -64.7380 N.pl3  41  ARG41       0.1354
     66  NH2        5.5960  -56.3540  -62.8360 N.pl3  41  ARG41       0.1354
     67  N         24.5750  -51.4000  -61.5240 N.3   236  PHE236     -0.1241
     68  CA        23.2230  -50.8750  -61.4730 C.3   236  PHE236      0.1605
     69  C         23.1240  -49.9170  -60.2730 C.2   236  PHE236      0.2264
     70  O         23.7010  -50.2160  -59.2060 O.2   236  PHE236     -0.2867
     71  CB        22.2280  -52.0240  -61.3370 C.3   236  PHE236      0.0534
     72  CG        20.8330  -51.5670  -61.1590 C.ar  236  PHE236     -0.0203
     73  CD1       20.0730  -51.1580  -62.2580 C.ar  236  PHE236     -0.0042
     74  CD2       20.2870  -51.5030  -59.9070 C.ar  236  PHE236     -0.0042
     75  CE1       18.7970  -50.7000  -62.0980 C.ar  236  PHE236     -0.0003
     76  CE2       18.9890  -51.0570  -59.7460 C.ar  236  PHE236     -0.0003
     77  CZ        18.2440  -50.6530  -60.8570 C.ar  236  PHE236     -0.0000
     78  N         10.6290  -43.7320  -58.5620 N.3   246  SER246     -0.1217
     79  CA        12.0330  -44.2010  -58.3530 C.3   246  SER246      0.1889
     80  C         12.7360  -44.0790  -59.7190 C.2   246  SER246      0.2288
     81  O         12.0650  -43.9990  -60.7710 O.2   246  SER246     -0.2866
     82  CB        12.0280  -45.6300  -57.8170 C.3   246  SER246      0.2089
     83  OG        11.4210  -46.5380  -58.7430 O.3   246  SER246     -0.2183
     84  N         16.6370  -44.9680  -61.9910 N.3   248  SER248     -0.1217
     85  CA        17.7570  -45.8950  -62.0050 C.3   248  SER248      0.1889
     86  C         18.6900  -45.6270  -63.1380 C.2   248  SER248      0.2288
     87  O         18.3080  -45.0440  -64.1400 O.2   248  SER248     -0.2866
     88  CB        17.2700  -47.3390  -62.0440 C.3   248  SER248      0.2089
     89  OG        16.8660  -47.7240  -63.3220 O.3   248  SER248     -0.2183
     90  N         22.2690  -47.3970  -65.1430 N.3   250  GLU250     -0.1245
     91  CA        23.0260  -48.6060  -65.2500 C.3   250  GLU250      0.1567
     92  C         24.0420  -48.5110  -66.3210 C.2   250  GLU250      0.2260
     93  O         23.7520  -47.9620  -67.3530 O.2   250  GLU250     -0.2867
     94  CB        22.1130  -49.7410  -65.6310 C.3   250  GLU250      0.0388
     95  CG        22.7640  -51.0990  -65.6760 C.3   250  GLU250      0.1160
     96  CD        21.7450  -52.2170  -65.4970 C.2   250  GLU250      0.3649
     97  OE1       20.5380  -51.9700  -65.2610 O.co2 250  GLU250     -0.2457
     98  OE2       22.1500  -53.3660  -65.5980 O.co2 250  GLU250     -0.2457
     99  N         26.8280  -51.0010  -72.7590 N.3   268  TYR268     -0.1241
    100  CA        25.3770  -50.8350  -72.5740 C.3   268  TYR268      0.1605
    101  C         25.2190  -49.7400  -71.5260 C.2   268  TYR268      0.2264
    102  O         26.0290  -49.6700  -70.5680 O.2   268  TYR268     -0.2867
    103  CB        24.6780  -52.1710  -72.2040 C.3   268  TYR268      0.0534
    104  CG        23.3740  -51.9850  -71.4900 C.ar  268  TYR268     -0.0201
    105  CD1       23.3530  -51.7990  -70.1290 C.ar  268  TYR268     -0.0009
    106  CD2       22.1300  -51.9340  -72.2050 C.ar  268  TYR268     -0.0009
    107  CE1       22.2280  -51.5690  -69.4850 C.ar  268  TYR268      0.0417
    108  CE2       20.9630  -51.7290  -71.5410 C.ar  268  TYR268      0.0417
    109  CZ        21.0090  -51.5250  -70.1940 C.ar  268  TYR268      0.1957
    110  OH        19.8770  -51.2760  -69.4790 O.3   268  TYR268     -0.2866
    111  N         16.1040  -45.1640  -66.3110 N.3   272  GLY272     -0.1225
    112  CA        14.6240  -45.2560  -66.2910 C.3   272  GLY272      0.1811
    113  C         14.0130  -44.5600  -65.0980 C.2   272  GLY272      0.2280
    114  O         14.7150  -44.1890  -64.1760 O.2   272  GLY272     -0.2866
    115  N         10.2330  -44.9660  -62.7470 N.3   274  ASN274     -0.1240
    116  CA         8.8160  -45.2820  -62.6740 C.3   274  ASN274      0.1653
    117  C          8.1370  -44.8340  -61.4460 C.2   274  ASN274      0.2266
    118  O          8.7300  -44.3260  -60.4960 O.2   274  ASN274     -0.2867
    119  CB         8.4520  -46.7520  -62.9770 C.3   274  ASN274      0.1155
    120  CG         8.8070  -47.6620  -61.8800 C.2   274  ASN274      0.2627
    121  OD1        9.9300  -47.5980  -61.4010 O.2   274  ASN274     -0.2716
    122  ND2        7.8590  -48.5020  -61.4350 N.am  274  ASN274     -0.0877
    123  N          4.9110  -46.0040  -58.9810 N.3   276  SER276     -0.1217
    124  CA         3.9270  -46.9580  -58.4840 C.3   276  SER276      0.1889
    125  C          2.7360  -46.2320  -57.9390 C.2   276  SER276      0.2288
    126  O          2.8760  -45.3520  -57.1040 O.2   276  SER276     -0.2866
    127  CB         4.5060  -47.7400  -57.3260 C.3   276  SER276      0.2089
    128  OG         5.9050  -47.6680  -57.3990 O.3   276  SER276     -0.2183
@<TRIPOS>BOND
     1    30    29    2
     2    29    28    1
     3    27    28    1
     4    28    31    1
     5    31    32    1
     6    99   100    1
     7   100   103    1
     8   100   101    1
     9    35    33   ar
    10    22    21    2
    11   106   108   ar
    12   106   104   ar
    13   103   104    1
    14    33    32    1
    15    33    34   ar
    16   108   109   ar
    17   101   102    2
    18   104   105   ar
    19    21    20    1
    20    36    37    1
    21   109   107   ar
    22   109   110    1
    23    20    19    1
    24    20    23    1
    25   105   107   ar
    26    23    24    1
    27    37    40    1
    28    37    38    1
    29    40    41    1
    30    38    39    2
    31    26    25    1
    32    24    25    1
    33    42    41   ar
    34    42    44   ar
    35    41    43   ar
    36    93    92    2
    37    44    46   ar
    38    43    45   ar
    39    92    91    1
    40   111   112    1
    41   112   113    1
    42    48    49    1
    43    46    45   ar
    44    46    47    1
    45    95    94    1
    46    95    96    1
    47    94    91    1
    48    98    96   ar
    49    96    97   ar
    50    49    52    1
    51    49    50    1
    52    91    90    1
    53    52    53    1
    54    59    58    2
    55   113   114    2
    56    65    64    1
    57    58    57    1
    58    14    13    2
    59    55    53   am
    60    50    51    2
    61    87    86    2
    62    53    54    2
    63    13    12    1
    64    64    66    1
    65    64    63    2
    66    62    63    1
    67    62    61    1
    68    89    88    1
    69    86    85    1
    70    57    56    1
    71    57    60    1
    72   119   116    1
    73   119   120    1
    74   115   116    1
    75   116   117    1
    76    60    61    1
    77    12    15    1
    78    12    11    1
    79    73    75   ar
    80    73    72   ar
    81    15    16    1
    82    75    77   ar
    83    88    85    1
    84    85    84    1
    85   120   122   am
    86   120   121    2
    87    67    68    1
    88    68    71    1
    89    68    69    1
    90   117   118    2
    91    71    72    1
    92    72    74   ar
    93    77    76   ar
    94    16    18   am
    95    16    17    2
    96    81    80    2
    97    69    70    2
    98     4     3    2
    99    74    76   ar
   100    80    79    1
   101     3     2    1
   102   123   124    1
   103    83    82    1
   104    78    79    1
   105   124   125    1
   106   124   127    1
   107    79    82    1
   108   125   126    2
   109     2     1    1
   110     2     5    1
   111   128   127    1
   112     8     6   ar
   113     8    10   ar
   114     5     6    1
   115     6     7   ar
   116    10     9   ar
   117     7     9   ar
