@<TRIPOS>MOLECULE
tmp/2iwvC15.pdb
 86 83 0 0 0
SMALL
GASTEIGER

@<TRIPOS>ATOM
      1  N         23.8360  -61.9200  -52.1570 N.3   164  LEU164     -0.1245
      2  CA        24.5070  -62.4340  -53.3750 C.3   164  LEU164      0.1561
      3  C         23.5850  -63.3490  -54.2020 C.2   164  LEU164      0.2260
      4  O         22.9010  -64.1520  -53.6190 O.2   164  LEU164     -0.2867
      5  CB        25.7180  -63.2730  -52.9600 C.3   164  LEU164      0.0270
      6  CG        26.3990  -64.0280  -54.1000 C.3   164  LEU164      0.0019
      7  CD1       27.0590  -63.0540  -55.0920 C.3   164  LEU164      0.0001
      8  CD2       27.4160  -65.0350  -53.5560 C.3   164  LEU164      0.0001
      9  N         26.3170  -63.3890  -61.8010 N.3   192  ALA192     -0.1231
     10  CA        26.3490  -63.1880  -60.3610 C.3   192  ALA192      0.1694
     11  C         26.0570  -61.7450  -60.1160 C.2   192  ALA192      0.2592
     12  O         26.4760  -60.8990  -60.8920 O.2   192  ALA192     -0.2718
     13  CB        27.6970  -63.5590  -59.7910 C.3   192  ALA192      0.0304
     14  N         25.3280  -61.4700  -59.0400 N.am  193  TYR193     -0.1962
     15  CA        24.8790  -60.1220  -58.7010 C.3   193  TYR193      0.1771
     16  C         25.1460  -59.9070  -57.2290 C.2   193  TYR193      0.2619
     17  O         24.9240  -60.8230  -56.4570 O.2   193  TYR193     -0.2715
     18  CB        23.3660  -59.9750  -58.9150 C.3   193  TYR193      0.0574
     19  CG        22.8520  -60.4200  -60.2560 C.ar  193  TYR193     -0.0198
     20  CD1       22.7510  -61.7640  -60.5580 C.ar  193  TYR193     -0.0009
     21  CD2       22.3610  -59.4870  -61.1920 C.ar  193  TYR193     -0.0009
     22  CE1       22.2370  -62.1920  -61.7990 C.ar  193  TYR193      0.0417
     23  CE2       21.8320  -59.9000  -62.4580 C.ar  193  TYR193      0.0417
     24  CZ        21.7780  -61.2540  -62.7240 C.ar  193  TYR193      0.1957
     25  OH        21.3120  -61.7150  -63.9060 O.3   193  TYR193     -0.2866
     26  N         25.6170  -58.7170  -56.8290 N.am  194  LEU194     -0.1977
     27  CA        25.8000  -58.4500  -55.4130 C.3   194  LEU194      0.1596
     28  C         25.0090  -57.2200  -55.0340 C.2   194  LEU194      0.2287
     29  O         25.5850  -56.1560  -54.8860 O.2   194  LEU194     -0.2864
     30  CB        27.2840  -58.2950  -55.0540 C.3   194  LEU194      0.0297
     31  CG        27.5890  -58.0950  -53.5470 C.3   194  LEU194      0.0022
     32  CD1       27.5750  -59.3990  -52.7680 C.3   194  LEU194      0.0001
     33  CD2       28.9160  -57.3720  -53.3700 C.3   194  LEU194      0.0001
     34  N         26.5520  -54.1770  -58.2610 N.2   205  PRO205     -0.2571
     35  CA        27.5810  -54.6890  -59.1150 C.3   205  PRO205      0.2026
     36  C         27.1660  -56.0820  -59.6170 C.2   205  PRO205      0.2683
     37  O         26.7180  -56.9210  -58.8340 O.2   205  PRO205     -0.2709
     38  CB        28.7730  -54.8900  -58.1790 C.2   205  PRO205      0.0085
     39  CG        28.3940  -54.3830  -56.8660 C.2   205  PRO205      0.0180
     40  CD        26.9630  -54.0420  -56.8580 C.2   205  PRO205      0.0938
     41  N         27.3650  -56.3500  -60.9060 N.am  206  TYR206     -0.1955
     42  CA        27.1170  -57.6780  -61.4330 C.3   206  TYR206      0.1771
     43  C         28.1400  -58.0530  -62.5070 C.2   206  TYR206      0.2620
     44  O         28.8600  -57.2100  -63.0290 O.2   206  TYR206     -0.2715
     45  CB        25.6910  -57.7730  -61.9940 C.3   206  TYR206      0.0574
     46  CG        25.4120  -56.8680  -63.1050 C.ar  206  TYR206     -0.0198
     47  CD1       24.8060  -55.6680  -62.8900 C.ar  206  TYR206     -0.0009
     48  CD2       25.7410  -57.2130  -64.3970 C.ar  206  TYR206     -0.0009
     49  CE1       24.5010  -54.7890  -63.9550 C.ar  206  TYR206      0.0417
     50  CE2       25.4780  -56.3550  -65.4640 C.ar  206  TYR206      0.0417
     51  CZ        24.8520  -55.1430  -65.2300 C.ar  206  TYR206      0.1957
     52  OH        24.5430  -54.2870  -66.2810 O.3   206  TYR206     -0.2866
     53  N         28.1910  -59.3350  -62.8420 N.am  207  THR207     -0.1951
     54  CA        29.0780  -59.7980  -63.8920 C.3   207  THR207      0.1897
     55  C         28.4030  -60.9780  -64.5920 C.2   207  THR207      0.2313
     56  O         27.6550  -61.7290  -63.9660 O.2   207  THR207     -0.2863
     57  CB        30.4230  -60.2720  -63.2810 C.3   207  THR207      0.1794
     58  OG1       31.2320  -60.8440  -64.3170 O.3   207  THR207     -0.2208
     59  CG2       30.1790  -61.3410  -62.3210 C.3   207  THR207      0.0378
     60  N         29.5670  -64.4280  -66.7480 N.3   209  ILE209     -0.1245
     61  CA        30.7390  -65.1580  -67.1320 C.3   209  ILE209      0.1561
     62  C         30.3410  -66.0940  -68.2220 C.2   209  ILE209      0.2260
     63  O         29.4330  -66.8840  -68.0620 O.2   209  ILE209     -0.2867
     64  CB        31.3070  -65.8690  -65.9220 C.3   209  ILE209      0.0252
     65  CG1       31.7250  -64.8120  -64.9040 C.3   209  ILE209      0.0019
     66  CG2       32.5060  -66.6700  -66.3240 C.3   209  ILE209      0.0019
     67  CD1       31.4830  -65.2040  -63.4660 C.3   209  ILE209      0.0001
     68  N         32.3650  -61.7330  -71.7780 N.3   231  ASN231     -0.1240
     69  CA        32.3190  -61.5140  -70.3610 C.3   231  ASN231      0.1653
     70  C         31.9050  -60.0720  -70.1330 C.2   231  ASN231      0.2266
     71  O         32.3410  -59.1920  -70.8670 O.2   231  ASN231     -0.2867
     72  CB        33.6630  -61.9000  -69.7450 C.3   231  ASN231      0.1155
     73  CG        33.9760  -63.3840  -69.9610 C.2   231  ASN231      0.2627
     74  OD1       33.6110  -64.2240  -69.1550 O.2   231  ASN231     -0.2716
     75  ND2       34.5650  -63.7120  -71.0800 N.am  231  ASN231     -0.0877
     76  N         30.7540  -56.9850  -67.1910 N.3   233  VAL233     -0.1231
     77  CA        30.6310  -56.5230  -65.8360 C.3   233  VAL233      0.1692
     78  C         29.8220  -55.2430  -65.8680 C.2   233  VAL233      0.2592
     79  O         29.8900  -54.4780  -66.8370 O.2   233  VAL233     -0.2718
     80  CB        31.9950  -56.2400  -65.1950 C.3   233  VAL233      0.0266
     81  CG1       32.9200  -57.3870  -65.4580 C.3   233  VAL233      0.0020
     82  CG2       32.5770  -55.0000  -65.7850 C.3   233  VAL233      0.0020
     83  N         29.0660  -54.9720  -64.8190 N.am  234  GLY234     -0.1957
     84  CA        28.3340  -53.7430  -64.8580 C.3   234  GLY234      0.1869
     85  C         27.9700  -53.3220  -63.4840 C.2   234  GLY234      0.2309
     86  O         28.2600  -54.0160  -62.5040 O.2   234  GLY234     -0.2863
@<TRIPOS>BOND
     1    68    69    1
     2    75    73   am
     3    71    70    2
     4    69    70    1
     5    69    72    1
     6    73    72    1
     7    73    74    2
     8    62    63    2
     9    62    61    1
    10    76    77    1
    11    61    60    1
    12    61    64    1
    13    79    78    2
    14    66    64    1
    15    52    51    1
    16    64    65    1
    17    78    77    1
    18    78    83   am
    19    77    80    1
    20    82    80    1
    21    50    51   ar
    22    50    48   ar
    23    81    80    1
    24    51    49   ar
    25    65    67    1
    26    84    83    1
    27    84    85    1
    28    55    56    2
    29    55    54    1
    30    48    46   ar
    31    58    57    1
    32    49    47   ar
    33    25    24    1
    34    54    57    1
    35    54    53    1
    36    85    86    2
    37    57    59    1
    38    46    47   ar
    39    46    45    1
    40    44    43    2
    41    53    43   am
    42    24    23   ar
    43    24    22   ar
    44    43    42    1
    45    23    21   ar
    46    45    42    1
    47     9    10    1
    48    22    20   ar
    49    42    41    1
    50    21    19   ar
    51    41    36   am
    52    12    11    2
    53    20    19   ar
    54    10    11    1
    55    10    13    1
    56    19    18    1
    57    11    14   am
    58    36    35    1
    59    36    37    2
    60    35    34    1
    61    35    38    1
    62    14    15    1
    63    18    15    1
    64    15    16    1
    65    34    40    2
    66    38    39    2
    67    16    26   am
    68    16    17    2
    69    39    40    1
    70    26    27    1
    71    27    30    1
    72    27    28    1
    73     7     6    1
    74    30    31    1
    75    28    29    2
    76     3     4    2
    77     3     2    1
    78     6     8    1
    79     6     5    1
    80    31    33    1
    81    31    32    1
    82     2     5    1
    83     2     1    1
