@<TRIPOS>MOLECULE
tmp/2iwvD17.pdb
 100 93 0 0 0
SMALL
GASTEIGER

@<TRIPOS>ATOM
      1  N          5.9450  -46.9700   -2.6160 N.3    41  ARG41      -0.1245
      2  CA         5.4560  -48.1700   -3.2000 C.3    41  ARG41       0.1563
      3  C          6.5300  -48.5320   -4.1740 C.2    41  ARG41       0.2260
      4  O          6.9980  -47.6720   -4.8760 O.2    41  ARG41      -0.2867
      5  CB         4.1470  -47.8820   -3.9210 C.3    41  ARG41       0.0307
      6  CG         3.1980  -49.0390   -3.9120 C.3    41  ARG41       0.0489
      7  CD         3.3130  -49.8360   -5.1620 C.3    41  ARG41       0.2205
      8  NE         2.0000  -50.3830   -5.5310 N.pl3  41  ARG41      -0.0865
      9  CZ         1.6480  -50.7790   -6.7650 C.cat  41  ARG41       0.5346
     10  NH1        2.5260  -50.6950   -7.7760 N.pl3  41  ARG41       0.1354
     11  NH2        0.4030  -51.2420   -6.9920 N.pl3  41  ARG41       0.1354
     12  N          7.1510  -45.4310   -6.6380 N.3    71  HIS71      -0.1241
     13  CA         6.0960  -44.4190   -6.7140 C.3    71  HIS71       0.1621
     14  C          6.0110  -43.7510   -5.3870 C.2    71  HIS71       0.2264
     15  O          5.9960  -44.4260   -4.3990 O.2    71  HIS71      -0.2867
     16  CB         4.7740  -45.1100   -6.9650 C.3    71  HIS71       0.0745
     17  CG         3.5860  -44.2050   -6.8780 C.ar   71  HIS71       0.0817
     18  ND1        2.8660  -44.0430   -5.7150 N.ar   71  HIS71      -0.2268
     19  CD2        2.9680  -43.4440   -7.8130 C.ar   71  HIS71       0.1154
     20  CE1        1.8710  -43.2030   -5.9320 C.ar   71  HIS71       0.1986
     21  NE2        1.8990  -42.8320   -7.1990 N.ar   71  HIS71      -0.2212
     22  N          3.6730  -40.9310   -3.1160 N.3    73  GLN73      -0.1245
     23  CA         2.4020  -40.2520   -3.0480 C.3    73  GLN73       0.1566
     24  C          2.6290  -38.9610   -2.2910 C.2    73  GLN73       0.2260
     25  O          2.7660  -38.9930   -1.0740 O.2    73  GLN73      -0.2867
     26  CB         1.3920  -41.1350   -2.3220 C.3    73  GLN73       0.0367
     27  CG        -0.0190  -40.5340   -2.1790 C.3    73  GLN73       0.0905
     28  CD        -0.8710  -40.5960   -3.4580 C.2    73  GLN73       0.2608
     29  OE1       -0.7710  -41.5310   -4.2450 O.2    73  GLN73      -0.2717
     30  NE2       -1.7000  -39.5910   -3.6560 N.am   73  GLN73      -0.0878
     31  N          5.5260  -41.4940  -10.2890 N.3    85  THR85      -0.1218
     32  CA         6.2800  -42.7570  -10.4930 C.3    85  THR85       0.1862
     33  C          7.5000  -42.6200  -11.3740 C.2    85  THR85       0.2287
     34  O          7.3940  -42.0090  -12.4110 O.2    85  THR85      -0.2866
     35  CB         5.4200  -43.7370  -11.2380 C.3    85  THR85       0.1770
     36  OG1        4.1260  -43.7370  -10.6110 O.3    85  THR85      -0.2211
     37  CG2        6.0990  -45.1160  -11.2600 C.3    85  THR85       0.0375
     38  N         10.9030  -44.1220  -17.4180 N.3   110  LYS110     -0.1245
     39  CA         9.6780  -43.3460  -17.4010 C.3   110  LYS110      0.1561
     40  C          9.5630  -42.4630  -16.1630 C.2   110  LYS110      0.2260
     41  O         10.0940  -42.7650  -15.1190 O.2   110  LYS110     -0.2867
     42  CB         8.4180  -44.2560  -17.5510 C.3   110  LYS110      0.0271
     43  CG         7.5130  -44.1960  -16.3380 C.3   110  LYS110      0.0035
     44  CD         6.7220  -45.4600  -16.2310 C.3   110  LYS110      0.0206
     45  CE         5.5780  -45.2880  -15.2850 C.3   110  LYS110      0.1093
     46  NZ         4.5190  -46.4340  -15.3870 N.3   110  LYS110     -0.1314
     47  N          6.1570  -40.4730  -14.4650 N.3   112  ALA112     -0.1245
     48  CA         4.6640  -40.3730  -14.6250 C.3   112  ALA112      0.1562
     49  C          3.9500  -39.6940  -13.4800 C.2   112  ALA112      0.2260
     50  O          3.6720  -40.3680  -12.4840 O.2   112  ALA112     -0.2867
     51  CB         4.0810  -41.8060  -14.6700 C.3   112  ALA112      0.0290
     52  N          0.5540  -38.6100  -11.4610 N.3   114  ASP114     -0.1239
     53  CA        -0.8180  -39.1540  -11.3490 C.3   114  ASP114      0.1674
     54  C         -1.5800  -38.3460  -10.3100 C.2   114  ASP114      0.2266
     55  O         -0.9930  -37.9160   -9.3030 O.2   114  ASP114     -0.2867
     56  CB        -0.8910  -40.6720  -11.0880 C.3   114  ASP114      0.1410
     57  CG        -0.4770  -41.0890   -9.6740 C.2   114  ASP114      0.3668
     58  OD1       -1.3170  -41.1110   -8.7330 O.co2 114  ASP114     -0.2456
     59  OD2        0.7040  -41.5060   -9.5110 O.co2 114  ASP114     -0.2456
     60  N         -3.3980  -39.9290  -15.4520 N.3   128  TRP128     -0.1241
     61  CA        -1.8960  -39.8960  -15.1840 C.3   128  TRP128      0.1605
     62  C         -1.4410  -39.5630  -16.5650 C.2   128  TRP128      0.2264
     63  O         -2.2770  -39.5460  -17.4930 O.2   128  TRP128     -0.2867
     64  CB        -1.3230  -41.2780  -14.7740 C.3   128  TRP128      0.0550
     65  CG        -2.0260  -42.3980  -15.5640 C.ar  128  TRP128      0.0003
     66  CD1       -3.2030  -43.0040  -15.2360 C.ar  128  TRP128      0.0946
     67  CD2       -1.6460  -42.9340  -16.8500 C.ar  128  TRP128      0.0152
     68  NE1       -3.5680  -43.9000  -16.2140 N.ar  128  TRP128     -0.2442
     69  CE2       -2.6490  -43.8680  -17.2240 C.ar  128  TRP128      0.0810
     70  CE3       -0.5500  -42.7160  -17.7200 C.ar  128  TRP128      0.0012
     71  CZ2       -2.5900  -44.6150  -18.4130 C.ar  128  TRP128      0.0191
     72  CZ3       -0.4840  -43.4420  -18.9060 C.ar  128  TRP128      0.0001
     73  CH2       -1.5290  -44.3870  -19.2560 C.ar  128  TRP128      0.0015
     74  N          2.4260  -40.3540  -18.7360 N.3   130  SER130     -0.1217
     75  CA         3.7750  -40.9060  -18.6700 C.3   130  SER130      0.1889
     76  C          4.6030  -40.3740  -19.7860 C.2   130  SER130      0.2288
     77  O          4.1090  -40.1890  -20.9020 O.2   130  SER130     -0.2866
     78  CB         3.6950  -42.3800  -18.9750 C.3   130  SER130      0.2089
     79  OG         2.6590  -42.9210  -18.1950 O.3   130  SER130     -0.2183
     80  N          8.3020  -41.3130  -21.6710 N.3   132  TYR132     -0.1241
     81  CA         9.2030  -42.4710  -21.7560 C.3   132  TYR132      0.1605
     82  C         10.3100  -42.0830  -22.6530 C.2   132  TYR132      0.2264
     83  O         10.0700  -41.4770  -23.6690 O.2   132  TYR132     -0.2867
     84  CB         8.5490  -43.7280  -22.4160 C.3   132  TYR132      0.0534
     85  CG         7.2910  -44.1650  -21.7840 C.ar  132  TYR132     -0.0201
     86  CD1        6.0530  -43.9270  -22.3950 C.ar  132  TYR132     -0.0009
     87  CD2        7.3030  -44.7630  -20.5720 C.ar  132  TYR132     -0.0009
     88  CE1        4.8640  -44.3390  -21.7630 C.ar  132  TYR132      0.0417
     89  CE2        6.1680  -45.1560  -19.8960 C.ar  132  TYR132      0.0417
     90  CZ         4.8930  -44.9470  -20.5620 C.ar  132  TYR132      0.1957
     91  OH         3.7090  -45.2900  -19.9280 O.3   132  TYR132     -0.2866
     92  N          2.0420  -40.7440  -23.0640 N.3   149  GLU149     -0.1245
     93  CA         0.7980  -41.4860  -23.0080 C.3   149  GLU149      0.1567
     94  C         -0.0110  -40.9950  -21.8510 C.2   149  GLU149      0.2260
     95  O          0.5110  -40.7900  -20.7770 O.2   149  GLU149     -0.2867
     96  CB         1.1010  -42.9660  -22.8870 C.3   149  GLU149      0.0388
     97  CG        -0.0950  -43.8910  -22.7690 C.3   149  GLU149      0.1160
     98  CD         0.3890  -45.3080  -22.4590 C.2   149  GLU149      0.3649
     99  OE1        1.5080  -45.4890  -21.7790 O.co2 149  GLU149     -0.2457
    100  OE2       -0.3500  -46.2360  -22.8790 O.co2 149  GLU149     -0.2457
@<TRIPOS>BOND
     1    83    82    2
     2    92    93    1
     3    93    96    1
     4    93    94    1
     5    96    97    1
     6   100    98   ar
     7    97    98    1
     8    82    81    1
     9    98    99   ar
    10    84    85    1
    11    84    81    1
    12    86    85   ar
    13    86    88   ar
    14    94    95    2
    15    85    87   ar
    16    88    90   ar
    17    81    80    1
    18    77    76    2
    19    87    89   ar
    20    90    91    1
    21    90    89   ar
    22    76    75    1
    23    73    72   ar
    24    73    71   ar
    25    78    75    1
    26    78    79    1
    27    72    70   ar
    28    74    75    1
    29    71    69   ar
    30    70    67   ar
    31    42    39    1
    32    42    43    1
    33    63    62    2
    34    38    39    1
    35    39    40    1
    36    69    67   ar
    37    69    68   ar
    38    67    65   ar
    39    62    61    1
    40    43    44    1
    41    44    45    1
    42    68    66   ar
    43    40    41    2
    44    65    66   ar
    45    65    64    1
    46    60    61    1
    47    46    45    1
    48    61    64    1
    49    51    48    1
    50    48    47    1
    51    48    49    1
    52    49    50    2
    53    34    33    2
    54    52    53    1
    55    33    32    1
    56    53    56    1
    57    53    54    1
    58    37    35    1
    59    35    36    1
    60    35    32    1
    61    56    57    1
    62    32    31    1
    63    54    55    2
    64    57    59   ar
    65    57    58   ar
    66    19    21   ar
    67    19    17   ar
    68    10     9    1
    69    21    20   ar
    70    11     9    1
    71    16    17    1
    72    16    13    1
    73    17    18   ar
    74     9     8    2
    75    13    12    1
    76    13    14    1
    77    20    18   ar
    78     8     7    1
    79    14    15    2
    80     7     6    1
    81     4     3    2
    82    29    28    2
    83     3     2    1
    84     5     6    1
    85     5     2    1
    86    30    28   am
    87    28    27    1
    88     2     1    1
    89    22    23    1
    90    23    26    1
    91    23    24    1
    92    26    27    1
    93    24    25    2
