@<TRIPOS>MOLECULE
tmp/2iwvB24.pdb
 90 83 0 0 0
SMALL
GASTEIGER

@<TRIPOS>ATOM
      1  N         13.9930  -27.2830  -62.7860 N.3    10  MET10      -0.1245
      2  CA        14.9300  -27.6880  -61.7140 C.3    10  MET10       0.1570
      3  C         14.1630  -28.0840  -60.4920 C.2    10  MET10       0.2261
      4  O         13.1470  -27.4940  -60.1820 O.2    10  MET10      -0.2867
      5  CB        15.8500  -26.5440  -61.2950 C.3    10  MET10       0.0387
      6  CG        17.1300  -26.5360  -62.0480 C.3    10  MET10       0.0595
      7  SD        18.5430  -26.3760  -60.9290 S.3    10  MET10      -0.1393
      8  CE        18.6760  -24.5740  -60.8780 C.3    10  MET10       0.0692
      9  N         11.5310  -22.5990  -66.2500 N.3    32  TYR32      -0.1241
     10  CA        11.9450  -21.3100  -66.7710 C.3    32  TYR32       0.1605
     11  C         11.9130  -21.4140  -68.2790 C.2    32  TYR32       0.2264
     12  O         11.9700  -22.4860  -68.8140 O.2    32  TYR32      -0.2867
     13  CB        13.3330  -20.9340  -66.2450 C.3    32  TYR32       0.0534
     14  CG        14.3910  -21.9120  -66.6510 C.ar   32  TYR32      -0.0201
     15  CD1       14.8480  -22.9020  -65.7500 C.ar   32  TYR32      -0.0009
     16  CD2       14.9380  -21.8810  -67.9430 C.ar   32  TYR32      -0.0009
     17  CE1       15.8620  -23.8130  -66.1340 C.ar   32  TYR32       0.0417
     18  CE2       15.9230  -22.7790  -68.3300 C.ar   32  TYR32       0.0417
     19  CZ        16.3720  -23.7400  -67.4360 C.ar   32  TYR32       0.1957
     20  OH        17.3150  -24.6350  -67.8740 O.3    32  TYR32      -0.2866
     21  N         13.3730  -19.0340  -71.8190 N.3    34  ASN34      -0.1240
     22  CA        13.9430  -17.7870  -72.3400 C.3    34  ASN34       0.1653
     23  C         14.2100  -17.7040  -73.8230 C.2    34  ASN34       0.2266
     24  O         14.3440  -18.6760  -74.4970 O.2    34  ASN34      -0.2867
     25  CB        15.2000  -17.3860  -71.5640 C.3    34  ASN34       0.1155
     26  CG        16.2830  -18.3430  -71.7350 C.2    34  ASN34       0.2627
     27  OD1       16.8980  -18.4460  -72.8070 O.2    34  ASN34      -0.2716
     28  ND2       16.5070  -19.1000  -70.7170 N.am   34  ASN34      -0.0877
     29  N         17.3890  -10.4000  -74.7260 N.3    41  ARG41      -0.1245
     30  CA        17.2550  -11.6890  -74.1010 C.3    41  ARG41       0.1563
     31  C         16.2040  -11.4390  -73.0800 C.2    41  ARG41       0.2260
     32  O         16.2780  -10.4620  -72.3630 O.2    41  ARG41      -0.2867
     33  CB        18.5580  -12.0930  -73.4050 C.3    41  ARG41       0.0307
     34  CG        18.8120  -13.5670  -73.3160 C.3    41  ARG41       0.0489
     35  CD        18.3460  -14.1240  -72.0320 C.3    41  ARG41       0.2205
     36  NE        19.0980  -15.3280  -71.6980 N.pl3  41  ARG41      -0.0865
     37  CZ        19.1930  -15.8440  -70.4650 C.cat  41  ARG41       0.5346
     38  NH1       18.5660  -15.2650  -69.4350 N.pl3  41  ARG41       0.1354
     39  NH2       19.9340  -16.9410  -70.2590 N.pl3  41  ARG41       0.1354
     40  N         29.4160  -29.7700  -58.8970 N.3   236  PHE236     -0.1241
     41  CA        28.4880  -29.6840  -59.9600 C.3   236  PHE236      0.1605
     42  C         28.8830  -30.6960  -61.0380 C.2   236  PHE236      0.2264
     43  O         30.0540  -30.8150  -61.3450 O.2   236  PHE236     -0.2867
     44  CB        28.5310  -28.2690  -60.5230 C.3   236  PHE236      0.0534
     45  CG        27.6810  -28.0870  -61.7070 C.ar  236  PHE236     -0.0203
     46  CD1       26.3170  -27.9320  -61.5680 C.ar  236  PHE236     -0.0042
     47  CD2       28.2270  -28.0930  -62.9630 C.ar  236  PHE236     -0.0042
     48  CE1       25.5080  -27.7700  -62.6840 C.ar  236  PHE236     -0.0003
     49  CE2       27.4030  -27.9480  -64.0910 C.ar  236  PHE236     -0.0003
     50  CZ        26.0590  -27.7840  -63.9270 C.ar  236  PHE236     -0.0000
     51  N         20.2460  -31.0020  -72.1350 N.3   246  SER246     -0.1217
     52  CA        21.4190  -31.2110  -71.1970 C.3   246  SER246      0.1889
     53  C         20.8480  -31.3970  -69.7800 C.2   246  SER246      0.2288
     54  O         19.7180  -30.9900  -69.5090 O.2   246  SER246     -0.2866
     55  CB        22.3880  -30.0260  -71.2910 C.3   246  SER246      0.2089
     56  OG        21.7790  -28.7880  -70.8970 O.3   246  SER246     -0.2183
     57  N         21.8810  -31.8470  -65.3440 N.3   248  SER248     -0.1217
     58  CA        22.9200  -31.5790  -64.3960 C.3   248  SER248      0.1889
     59  C         22.5000  -32.0000  -63.0280 C.2   248  SER248      0.2288
     60  O         21.3350  -32.0830  -62.7470 O.2   248  SER248     -0.2866
     61  CB        23.2590  -30.0860  -64.4050 C.3   248  SER248      0.2089
     62  OG        22.2230  -29.3370  -63.8220 O.3   248  SER248     -0.2183
     63  N         23.9280  -31.6130  -58.7950 N.3   250  GLU250     -0.1245
     64  CA        24.7870  -30.8410  -57.9360 C.3   250  GLU250      0.1567
     65  C         24.5400  -31.1300  -56.4850 C.2   250  GLU250      0.2260
     66  O         23.3760  -31.2800  -56.0500 O.2   250  GLU250     -0.2867
     67  CB        24.5330  -29.3750  -58.1400 C.3   250  GLU250      0.0388
     68  CG        25.4520  -28.4850  -57.3830 C.3   250  GLU250      0.1160
     69  CD        25.4880  -27.0920  -57.9660 C.2   250  GLU250      0.3649
     70  OE1       24.7740  -26.7910  -58.9820 O.co2 250  GLU250     -0.2457
     71  OE2       26.2590  -26.2970  -57.4060 O.co2 250  GLU250     -0.2457
     72  N         18.7000  -30.6230  -62.6970 N.3   272  GLY272     -0.1210
     73  CA        17.9440  -29.8940  -63.7500 C.3   272  GLY272      0.1956
     74  C         18.0490  -30.4940  -65.1370 C.2   272  GLY272      0.2612
     75  O         18.9090  -31.3080  -65.3870 O.2   272  GLY272     -0.2717
     76  N         17.1560  -30.0820  -66.0210 N.am  273  VAL273     -0.1965
     77  CA        17.1850  -30.4070  -67.4560 C.3   273  VAL273      0.1727
     78  C         17.0160  -29.0910  -68.1730 C.2   273  VAL273      0.2616
     79  O         16.2170  -28.2330  -67.7330 O.2   273  VAL273     -0.2715
     80  CB        15.8880  -31.0940  -68.0120 C.3   273  VAL273      0.0290
     81  CG1       16.2050  -32.1190  -69.0850 C.3   273  VAL273      0.0023
     82  CG2       14.9910  -31.6350  -66.9530 C.3   273  VAL273      0.0023
     83  N         17.6750  -28.9320  -69.3100 N.am  274  ASN274     -0.1972
     84  CA        17.0590  -28.0450  -70.2710 C.3   274  ASN274      0.1688
     85  C         17.3160  -28.3860  -71.6840 C.2   274  ASN274      0.2292
     86  O         18.0620  -29.2960  -72.0340 O.2   274  ASN274     -0.2864
     87  CB        17.2930  -26.5620  -70.0020 C.3   274  ASN274      0.1181
     88  CG        18.6470  -26.1210  -70.3670 C.2   274  ASN274      0.2629
     89  OD1       19.6120  -26.7380  -69.9110 O.2   274  ASN274     -0.2716
     90  ND2       18.7600  -25.0350  -71.1880 N.am  274  ASN274     -0.0877
@<TRIPOS>BOND
     1    29    30    1
     2    24    23    2
     3    30    33    1
     4    30    31    1
     5    23    22    1
     6    33    34    1
     7    34    35    1
     8    31    32    2
     9    27    26    2
    10    22    21    1
    11    22    25    1
    12    51    52    1
    13    86    85    2
    14    35    36    1
    15    26    25    1
    16    26    28   am
    17    36    37    2
    18    85    84    1
    19    55    52    1
    20    55    56    1
    21    52    53    1
    22    90    88   am
    23    37    39    1
    24    37    38    1
    25    88    87    1
    26    88    89    2
    27    84    87    1
    28    84    83    1
    29    53    54    2
    30    83    78   am
    31    81    80    1
    32    12    11    2
    33    18    16   ar
    34    18    19   ar
    35    11    10    1
    36    78    79    2
    37    78    77    1
    38    80    77    1
    39    80    82    1
    40    16    14   ar
    41    20    19    1
    42    77    76    1
    43    19    17   ar
    44    10     9    1
    45    10    13    1
    46    14    13    1
    47    14    15   ar
    48    17    15   ar
    49    76    74   am
    50    75    74    2
    51    57    58    1
    52    74    73    1
    53    61    58    1
    54    61    62    1
    55    58    59    1
    56    49    50   ar
    57    49    47   ar
    58    50    48   ar
    59    73    72    1
    60    59    60    2
    61    47    45   ar
    62     1     2    1
    63    48    46   ar
    64     6     5    1
    65     6     7    1
    66     2     5    1
    67     2     3    1
    68    45    46   ar
    69    45    44    1
    70    43    42    2
    71    42    41    1
    72     7     8    1
    73    44    41    1
    74     3     4    2
    75    41    40    1
    76    70    69   ar
    77    63    64    1
    78    67    64    1
    79    67    68    1
    80    69    71   ar
    81    69    68    1
    82    64    65    1
    83    65    66    2
