@<TRIPOS>MOLECULE
tmp/2iwvD18.pdb
 140 131 0 0 0
SMALL
GASTEIGER

@<TRIPOS>ATOM
      1  N          0.2020  -63.2030  -14.4070 N.3    10  MET10      -0.1245
      2  CA        -0.7820  -63.0920  -15.5040 C.3    10  MET10       0.1570
      3  C         -0.3950  -63.8690  -16.7520 C.2    10  MET10       0.2261
      4  O          0.7440  -63.8720  -17.1630 O.2    10  MET10      -0.2867
      5  CB        -0.9630  -61.6400  -15.9210 C.3    10  MET10       0.0387
      6  CG        -2.0480  -60.9360  -15.1680 C.3    10  MET10       0.0595
      7  SD        -3.2060  -60.1440  -16.3250 S.3    10  MET10      -0.1393
      8  CE        -2.4280  -58.5190  -16.3930 C.3    10  MET10       0.0692
      9  N         -1.6110  -63.7550  -20.7260 N.3    12  GLU12      -0.1245
     10  CA        -2.4410  -63.0310  -21.6810 C.3    12  GLU12       0.1567
     11  C         -2.1210  -63.4440  -23.0820 C.2    12  GLU12       0.2260
     12  O         -1.0090  -63.9310  -23.3920 O.2    12  GLU12      -0.2867
     13  CB        -2.2080  -61.5150  -21.6260 C.3    12  GLU12       0.0388
     14  CG        -2.5300  -60.8770  -20.3110 C.3    12  GLU12       0.1160
     15  CD        -2.0710  -59.4260  -20.2490 C.2    12  GLU12       0.3649
     16  OE1       -2.9350  -58.4910  -20.4220 O.co2  12  GLU12      -0.2457
     17  OE2       -0.8400  -59.2450  -20.0570 O.co2  12  GLU12      -0.2457
     18  N         -2.8550  -62.0270  -27.2380 N.3    14  GLU14      -0.1245
     19  CA        -3.2940  -61.0550  -28.2380 C.3    14  GLU14       0.1567
     20  C         -3.0870  -61.6610  -29.5930 C.2    14  GLU14       0.2260
     21  O         -2.0130  -62.2090  -29.8720 O.2    14  GLU14      -0.2867
     22  CB        -2.4820  -59.7700  -28.1560 C.3    14  GLU14       0.0388
     23  CG        -2.7420  -59.0270  -26.8660 C.3    14  GLU14       0.1160
     24  CD        -1.7640  -57.8710  -26.6430 C.2    14  GLU14       0.3649
     25  OE1       -0.5160  -58.1200  -26.5130 O.co2  14  GLU14      -0.2457
     26  OE2       -2.2510  -56.7150  -26.5550 O.co2  14  GLU14      -0.2457
     27  N        -16.9060  -44.5550  -15.8820 N.3   165  ARG165     -0.1245
     28  CA       -15.7110  -43.7420  -16.1380 C.3   165  ARG165      0.1563
     29  C        -15.6480  -43.3970  -17.5980 C.2   165  ARG165      0.2260
     30  O        -15.7390  -44.2760  -18.3880 O.2   165  ARG165     -0.2867
     31  CB       -14.4380  -44.5480  -15.8040 C.3   165  ARG165      0.0307
     32  CG       -14.3660  -45.0200  -14.3960 C.3   165  ARG165      0.0489
     33  CD       -13.3330  -46.1340  -14.1800 C.3   165  ARG165      0.2205
     34  NE       -11.9770  -45.8400  -14.5250 N.pl3 165  ARG165     -0.0865
     35  CZ       -10.9650  -46.6230  -14.9320 C.cat 165  ARG165      0.5346
     36  NH1      -11.0220  -47.9170  -15.2350 N.pl3 165  ARG165      0.1354
     37  NH2       -9.8200  -45.9980  -15.0990 N.pl3 165  ARG165      0.1354
     38  N        -12.0950  -43.9160  -23.8560 N.3   191  ARG191     -0.1245
     39  CA       -12.3640  -45.2100  -23.2710 C.3   191  ARG191      0.1563
     40  C        -13.4260  -45.0460  -22.1930 C.2   191  ARG191      0.2260
     41  O        -13.3480  -44.1290  -21.3940 O.2   191  ARG191     -0.2867
     42  CB       -11.0940  -45.8310  -22.6390 C.3   191  ARG191      0.0307
     43  CG        -9.7730  -45.3240  -23.1990 C.3   191  ARG191      0.0489
     44  CD        -8.9200  -46.3250  -23.9270 C.3   191  ARG191      0.2205
     45  NE        -7.8470  -46.8520  -23.0850 N.pl3 191  ARG191     -0.0865
     46  CZ        -6.7170  -47.4470  -23.4970 C.cat 191  ARG191      0.5346
     47  NH1       -5.8630  -47.8620  -22.5510 N.pl3 191  ARG191      0.1354
     48  NH2       -6.4040  -47.6400  -24.7930 N.pl3 191  ARG191      0.1354
     49  N        -15.7170  -47.1460  -19.1320 N.3   193  TYR193     -0.1241
     50  CA       -15.7950  -48.3570  -18.3360 C.3   193  TYR193      0.1605
     51  C        -17.0560  -48.2820  -17.4980 C.2   193  TYR193      0.2264
     52  O        -17.3560  -47.2070  -16.9890 O.2   193  TYR193     -0.2867
     53  CB       -14.5910  -48.4270  -17.3770 C.3   193  TYR193      0.0534
     54  CG       -13.2490  -48.2090  -18.0260 C.ar  193  TYR193     -0.0201
     55  CD1      -12.8410  -46.9490  -18.4030 C.ar  193  TYR193     -0.0009
     56  CD2      -12.3730  -49.2620  -18.2190 C.ar  193  TYR193     -0.0009
     57  CE1      -11.6080  -46.7290  -19.0000 C.ar  193  TYR193      0.0417
     58  CE2      -11.1130  -49.0660  -18.8240 C.ar  193  TYR193      0.0417
     59  CZ       -10.7440  -47.7930  -19.1900 C.ar  193  TYR193      0.1957
     60  OH        -9.5060  -47.5590  -19.7610 O.3   193  TYR193     -0.2866
     61  N        -17.9160  -50.1900  -14.3060 N.3   195  PRO195     -0.2116
     62  CA       -17.6780  -51.1570  -13.2600 C.3   195  PRO195      0.1372
     63  C        -18.8640  -51.4240  -12.3450 C.2   195  PRO195      0.2244
     64  O        -19.4940  -50.4870  -11.8340 O.2   195  PRO195     -0.2868
     65  CB       -16.5030  -50.5500  -12.4600 C.3   195  PRO195      0.0268
     66  CG       -16.3950  -49.1340  -12.8670 C.3   195  PRO195      0.0207
     67  CD       -17.1320  -48.9450  -14.1240 C.3   195  PRO195      0.0892
     68  N        -16.8530  -55.6750  -15.1370 N.3   204  THR204     -0.1218
     69  CA       -16.8400  -54.4050  -15.7990 C.3   204  THR204      0.1862
     70  C        -16.7110  -54.4890  -17.3000 C.2   204  THR204      0.2287
     71  O        -15.6320  -54.8320  -17.7820 O.2   204  THR204     -0.2866
     72  CB       -15.8060  -53.4020  -15.2430 C.3   204  THR204      0.1770
     73  OG1      -15.1820  -52.6800  -16.3350 O.3   204  THR204     -0.2211
     74  CG2      -14.7770  -54.0520  -14.3380 C.3   204  THR204      0.0375
     75  N        -16.4760  -52.6930  -20.8820 N.3   206  TYR206     -0.1241
     76  CA       -15.7990  -51.4790  -21.2980 C.3   206  TYR206      0.1605
     77  C        -15.7070  -51.3700  -22.7940 C.2   206  TYR206      0.2264
     78  O        -15.8440  -52.3470  -23.5140 O.2   206  TYR206     -0.2867
     79  CB       -14.3950  -51.4130  -20.6880 C.3   206  TYR206      0.0534
     80  CG       -13.4720  -52.4900  -21.1030 C.ar  206  TYR206     -0.0201
     81  CD1      -13.2650  -53.5810  -20.2870 C.ar  206  TYR206     -0.0009
     82  CD2      -12.7600  -52.4090  -22.2950 C.ar  206  TYR206     -0.0009
     83  CE1      -12.3510  -54.6340  -20.6340 C.ar  206  TYR206      0.0417
     84  CE2      -11.8590  -53.4240  -22.6750 C.ar  206  TYR206      0.0417
     85  CZ       -11.6470  -54.5420  -21.8260 C.ar  206  TYR206      0.1957
     86  OH       -10.7340  -55.5510  -22.1750 O.3   206  TYR206     -0.2866
     87  N        -13.4590  -49.0970  -26.0720 N.3   208  ARG208     -0.1245
     88  CA       -12.6340  -47.9620  -26.5210 C.3   208  ARG208      0.1563
     89  C        -13.1100  -47.4360  -27.8870 C.2   208  ARG208      0.2260
     90  O        -13.2180  -48.1680  -28.8400 O.2   208  ARG208     -0.2867
     91  CB       -11.2220  -48.3800  -26.6970 C.3   208  ARG208      0.0307
     92  CG       -10.6860  -49.2100  -25.5520 C.3   208  ARG208      0.0489
     93  CD        -9.2500  -49.5220  -25.8690 C.3   208  ARG208      0.2205
     94  NE        -8.5730  -50.1640  -24.7640 N.pl3 208  ARG208     -0.0865
     95  CZ        -7.4050  -50.7870  -24.8250 C.cat 208  ARG208      0.5346
     96  NH1       -6.7190  -50.8900  -25.9480 N.pl3 208  ARG208      0.1354
     97  NH2       -6.9470  -51.3340  -23.7180 N.pl3 208  ARG208      0.1354
     98  N        -12.9720  -51.1920  -29.7720 N.3   232  ARG232     -0.1245
     99  CA       -12.7800  -52.3580  -28.9460 C.3   232  ARG232      0.1563
    100  C        -13.9460  -52.4260  -28.0220 C.2   232  ARG232      0.2260
    101  O        -14.4100  -51.4090  -27.5310 O.2   232  ARG232     -0.2867
    102  CB       -11.4230  -52.2460  -28.1320 C.3   232  ARG232      0.0307
    103  CG       -11.0590  -53.4620  -27.3540 C.3   232  ARG232      0.0489
    104  CD        -9.5660  -53.4500  -26.6250 C.3   232  ARG232      0.2205
    105  NE        -8.4060  -53.5540  -27.5180 N.pl3 232  ARG232     -0.0865
    106  CZ        -7.2110  -53.9980  -27.1150 C.cat 232  ARG232      0.5346
    107  NH1       -6.2020  -54.0530  -27.9530 N.pl3 232  ARG232      0.1354
    108  NH2       -7.0060  -54.3980  -25.8680 N.pl3 232  ARG232      0.1354
    109  N        -14.2760  -57.3560  -18.3250 N.3   236  PHE236     -0.1241
    110  CA       -13.4570  -57.8010  -17.2460 C.3   236  PHE236      0.1605
    111  C        -14.3300  -58.4890  -16.1620 C.2   236  PHE236      0.2264
    112  O        -15.4370  -58.0370  -15.8790 O.2   236  PHE236     -0.2867
    113  CB       -12.7200  -56.5960  -16.6990 C.3   236  PHE236      0.0534
    114  CG       -11.9010  -56.8910  -15.5210 C.ar  236  PHE236     -0.0203
    115  CD1      -10.6180  -57.4190  -15.6680 C.ar  236  PHE236     -0.0042
    116  CD2      -12.3830  -56.6330  -14.2620 C.ar  236  PHE236     -0.0042
    117  CE1       -9.8520  -57.7150  -14.5760 C.ar  236  PHE236     -0.0003
    118  CE2      -11.6190  -56.9080  -13.1520 C.ar  236  PHE236     -0.0003
    119  CZ       -10.3360  -57.4610  -13.3150 C.ar  236  PHE236     -0.0000
    120  N        -10.5240  -61.8650  -18.4000 N.3   250  GLU250     -0.1245
    121  CA       -10.8910  -60.7620  -19.2610 C.3   250  GLU250      0.1567
    122  C        -10.8420  -61.1640  -20.6940 C.2   250  GLU250      0.2260
    123  O         -9.8850  -61.8770  -21.1010 O.2   250  GLU250     -0.2867
    124  CB        -9.8770  -59.6400  -19.1190 C.3   250  GLU250      0.0388
    125  CG       -10.2530  -58.3590  -19.8370 C.3   250  GLU250      0.1160
    126  CD        -9.5640  -57.1260  -19.2240 C.2   250  GLU250      0.3649
    127  OE1       -8.8450  -57.2330  -18.1780 O.co2 250  GLU250     -0.2457
    128  OE2       -9.7370  -56.0460  -19.8110 O.co2 250  GLU250     -0.2457
    129  N         -8.2220  -60.3230  -27.5160 N.3   268  TYR268     -0.1241
    130  CA        -7.3200  -60.2730  -26.3880 C.3   268  TYR268      0.1605
    131  C         -8.0340  -61.1100  -25.3280 C.2   268  TYR268      0.2264
    132  O         -9.2570  -61.0480  -25.2130 O.2   268  TYR268     -0.2867
    133  CB        -6.9730  -58.7970  -25.9410 C.3   268  TYR268      0.0534
    134  CG        -6.5630  -58.7100  -24.4950 C.ar  268  TYR268     -0.0201
    135  CD1       -7.5120  -58.6350  -23.5110 C.ar  268  TYR268     -0.0009
    136  CD2       -5.2090  -58.7940  -24.0980 C.ar  268  TYR268     -0.0009
    137  CE1       -7.1870  -58.6460  -22.2190 C.ar  268  TYR268      0.0417
    138  CE2       -4.8750  -58.7760  -22.7660 C.ar  268  TYR268      0.0417
    139  CZ        -5.8760  -58.7200  -21.8400 C.ar  268  TYR268      0.1957
    140  OH        -5.6270  -58.7090  -20.5040 O.3   268  TYR268     -0.2866
@<TRIPOS>BOND
     1    21    20    2
     2    98    99    1
     3    20    19    1
     4    99   102    1
     5    99   100    1
     6    90    89    2
     7    19    22    1
     8    19    18    1
     9    22    23    1
    10   102   103    1
    11   100   101    2
    12   107   106    1
    13    89    88    1
    14   105   106    2
    15   105   104    1
    16   129   130    1
    17   103   104    1
    18   106   108    1
    19    23    24    1
    20    91    88    1
    21    91    92    1
    22    24    26   ar
    23    24    25   ar
    24    88    87    1
    25   130   133    1
    26   130   131    1
    27    96    95    1
    28   133   134    1
    29    93    92    1
    30    93    94    1
    31   131   132    2
    32    95    94    2
    33    95    97    1
    34    48    46    1
    35   134   136   ar
    36   134   135   ar
    37   136   138   ar
    38    44    43    1
    39    44    45    1
    40    38    39    1
    41    78    77    2
    42   135   137   ar
    43    46    45    2
    44    46    47    1
    45    12    11    2
    46    39    42    1
    47    39    40    1
    48    43    42    1
    49    11    10    1
    50    77    76    1
    51   138   139   ar
    52    84    82   ar
    53    84    85   ar
    54    82    80   ar
    55   137   139   ar
    56    40    41    2
    57    86    85    1
    58   139   140    1
    59    85    83   ar
    60    10    13    1
    61    10     9    1
    62    13    14    1
    63    76    75    1
    64    76    79    1
    65    80    79    1
    66    80    81   ar
    67   123   122    2
    68   122   121    1
    69    83    81   ar
    70    16    15   ar
    71    14    15    1
    72    15    17   ar
    73   125   126    1
    74   125   124    1
    75   128   126   ar
    76    60    59    1
    77   121   124    1
    78   121   120    1
    79   126   127   ar
    80    59    57   ar
    81    59    58   ar
    82    49    50    1
    83    57    55   ar
    84    58    56   ar
    85    55    54   ar
    86    30    29    2
    87    50    51    1
    88    50    53    1
    89   109   110    1
    90    56    54   ar
    91    54    53    1
    92    71    70    2
    93    29    28    1
    94    51    52    2
    95    70    69    1
    96   110   113    1
    97   110   111    1
    98     4     3    2
    99     3     2    1
   100   113   114    1
   101     8     7    1
   102    73    72    1
   103     7     6    1
   104   111   112    2
   105    28    27    1
   106    28    31    1
   107     5     2    1
   108     5     6    1
   109    31    32    1
   110    69    72    1
   111    69    68    1
   112   115   114   ar
   113   115   117   ar
   114   114   116   ar
   115     2     1    1
   116    72    74    1
   117    36    35    1
   118    37    35    1
   119    35    34    2
   120   117   119   ar
   121    34    33    1
   122    32    33    1
   123    61    67    1
   124    61    62    1
   125   116   118   ar
   126    67    66    1
   127   119   118   ar
   128    62    65    1
   129    62    63    1
   130    66    65    1
   131    63    64    2
