@<TRIPOS>MOLECULE
tmp/2iwwA02.pdb
 188 177 0 0 0
SMALL
GASTEIGER

@<TRIPOS>ATOM
      1  N        -31.4050   -8.4550   48.3100 N.3    10  MET10      -0.1245
      2  CA       -30.6870   -9.7140   48.5250 C.3    10  MET10       0.1570
      3  C        -29.2110   -9.4890   48.4050 C.2    10  MET10       0.2261
      4  O        -28.7750   -8.6890   47.5940 O.2    10  MET10      -0.2867
      5  CB       -31.1270  -10.7430   47.5080 C.3    10  MET10       0.0387
      6  CG       -30.7860  -12.1600   47.9050 C.3    10  MET10       0.0595
      7  SD       -31.4040  -13.3190   46.6880 S.3    10  MET10      -0.1393
      8  CE       -32.7700  -12.3830   45.9810 C.3    10  MET10       0.0692
      9  N        -25.7790  -11.8930   48.0080 N.3    12  GLU12      -0.1245
     10  CA       -25.2880  -13.2480   47.8030 C.3    12  GLU12       0.1567
     11  C        -23.7890  -13.2610   47.7710 C.2    12  GLU12       0.2260
     12  O        -23.1510  -12.2420   47.5660 O.2    12  GLU12      -0.2867
     13  CB       -25.8160  -13.8020   46.4930 C.3    12  GLU12       0.0388
     14  CG       -27.3260  -13.7440   46.3630 C.3    12  GLU12       0.1160
     15  CD       -27.7970  -14.2190   45.0260 C.2    12  GLU12       0.3649
     16  OE1      -27.8250  -13.4010   44.0910 O.co2  12  GLU12      -0.2457
     17  OE2      -28.1380  -15.4180   44.8930 O.co2  12  GLU12      -0.2457
     18  N        -20.3170  -15.9670   46.5570 N.3    14  GLU14      -0.1245
     19  CA       -19.8980  -17.1810   45.8400 C.3    14  GLU14       0.1567
     20  C        -18.3960  -17.2900   46.0410 C.2    14  GLU14       0.2260
     21  O        -17.6790  -16.3570   45.7260 O.2    14  GLU14      -0.2867
     22  CB       -20.2620  -17.1370   44.3480 C.3    14  GLU14       0.0388
     23  CG       -21.7880  -16.9650   44.0240 C.3    14  GLU14       0.1160
     24  CD       -22.1660  -17.2580   42.5140 C.2    14  GLU14       0.3649
     25  OE1      -23.1730  -16.7180   41.9770 O.co2  14  GLU14      -0.2457
     26  OE2      -21.4530  -18.0430   41.8520 O.co2  14  GLU14      -0.2457
     27  N        -22.6380  -10.2310   45.3990 N.3    28  GLU28      -0.1245
     28  CA       -23.7570   -9.9000   44.5790 C.3    28  GLU28       0.1567
     29  C        -24.8810   -9.2150   45.3870 C.2    28  GLU28       0.2260
     30  O        -25.8620   -9.8240   45.8020 O.2    28  GLU28      -0.2867
     31  CB       -24.2130  -11.1520   43.8550 C.3    28  GLU28       0.0388
     32  CG       -23.1250  -11.8070   42.9820 C.3    28  GLU28       0.1160
     33  CD       -23.2480  -13.3220   42.9070 C.2    28  GLU28       0.3649
     34  OE1      -24.3480  -13.8720   43.1630 O.co2  28  GLU28      -0.2457
     35  OE2      -22.2340  -13.9650   42.5910 O.co2  28  GLU28      -0.2457
     36  N        -28.9440   -5.3860   40.0360 N.3    47  TYR47      -0.1241
     37  CA       -28.0260   -6.4110   40.5070 C.3    47  TYR47       0.1605
     38  C        -26.5970   -5.9670   40.1850 C.2    47  TYR47       0.2264
     39  O        -26.3540   -5.1380   39.3200 O.2    47  TYR47      -0.2867
     40  CB       -28.4160   -7.7210   39.8310 C.3    47  TYR47       0.0534
     41  CG       -27.5090   -8.8940   40.0310 C.ar   47  TYR47      -0.0201
     42  CD1      -27.7360   -9.8160   41.0430 C.ar   47  TYR47      -0.0009
     43  CD2      -26.4430   -9.1340   39.1570 C.ar   47  TYR47      -0.0009
     44  CE1      -26.9000  -10.8990   41.2160 C.ar   47  TYR47       0.0417
     45  CE2      -25.6410  -10.2490   39.2920 C.ar   47  TYR47       0.0417
     46  CZ       -25.8660  -11.1120   40.3260 C.ar   47  TYR47       0.1957
     47  OH       -25.0600  -12.1800   40.4800 O.3    47  TYR47      -0.2866
     48  N        -41.1950  -23.5530   33.6260 N.3   128  TRP128     -0.1241
     49  CA       -40.9860  -22.3670   32.8060 C.3   128  TRP128      0.1605
     50  C        -39.9920  -22.6770   31.7150 C.2   128  TRP128      0.2264
     51  O        -39.0320  -23.3670   31.9570 O.2   128  TRP128     -0.2867
     52  CB       -40.5200  -21.2030   33.6620 C.3   128  TRP128      0.0550
     53  CG       -39.3970  -21.4980   34.5550 C.ar  128  TRP128      0.0003
     54  CD1      -39.4790  -21.8460   35.8280 C.ar  128  TRP128      0.0946
     55  CD2      -37.9900  -21.4210   34.2400 C.ar  128  TRP128      0.0152
     56  NE1      -38.2120  -22.0030   36.3720 N.ar  128  TRP128     -0.2442
     57  CE2      -37.2850  -21.7610   35.4010 C.ar  128  TRP128      0.0810
     58  CE3      -37.2680  -21.0880   33.0870 C.ar  128  TRP128      0.0012
     59  CZ2      -35.9080  -21.8080   35.4500 C.ar  128  TRP128      0.0191
     60  CZ3      -35.8990  -21.1310   33.1380 C.ar  128  TRP128      0.0001
     61  CH2      -35.2290  -21.4780   34.3170 C.ar  128  TRP128      0.0015
     62  N        -36.6400  -24.9890   33.2350 N.3   151  GLU151     -0.1245
     63  CA       -36.6790  -25.9140   34.3570 C.3   151  GLU151      0.1567
     64  C        -38.1240  -26.3710   34.3850 C.2   151  GLU151      0.2260
     65  O        -39.0250  -25.5560   34.4820 O.2   151  GLU151     -0.2867
     66  CB       -36.1980  -25.2830   35.6750 C.3   151  GLU151      0.0388
     67  CG       -36.1160  -26.2760   36.8000 C.3   151  GLU151      0.1160
     68  CD       -35.3050  -25.8280   38.0670 C.2   151  GLU151      0.3649
     69  OE1      -34.3580  -25.0010   38.0080 O.co2 151  GLU151     -0.2457
     70  OE2      -35.5910  -26.3770   39.1480 O.co2 151  GLU151     -0.2457
     71  N        -40.1800  -32.0440   44.6560 N.3   165  ARG165     -0.1245
     72  CA       -40.1080  -31.4830   43.3200 C.3   165  ARG165      0.1563
     73  C        -38.9060  -32.2080   42.7460 C.2   165  ARG165      0.2260
     74  O        -37.8130  -32.1800   43.3580 O.2   165  ARG165     -0.2867
     75  CB       -39.8310  -29.9440   43.3390 C.3   165  ARG165      0.0307
     76  CG       -40.9580  -28.9860   43.7460 C.3   165  ARG165      0.0489
     77  CD       -40.4380  -27.5330   43.9700 C.3   165  ARG165      0.2205
     78  NE       -40.0750  -26.7870   42.7370 N.pl3 165  ARG165     -0.0865
     79  CZ       -39.2480  -25.7220   42.6700 C.cat 165  ARG165      0.5346
     80  NH1      -38.9970  -25.1510   41.4920 N.pl3 165  ARG165      0.1354
     81  NH2      -38.6480  -25.2280   43.7610 N.pl3 165  ARG165      0.1354
     82  N        -32.8650  -31.6440   38.9850 N.3   191  ARG191     -0.1245
     83  CA       -32.8950  -30.9010   40.2610 C.3   191  ARG191      0.1563
     84  C        -34.0130  -31.4400   41.1180 C.2   191  ARG191      0.2260
     85  O        -35.1260  -31.6980   40.6230 O.2   191  ARG191     -0.2867
     86  CB       -33.0270  -29.3870   40.0450 C.3   191  ARG191      0.0307
     87  CG       -31.8840  -28.7680   39.2300 C.3   191  ARG191      0.0489
     88  CD       -32.1220  -27.2960   39.1220 C.3   191  ARG191      0.2205
     89  NE       -31.2400  -26.6140   38.1910 N.pl3 191  ARG191     -0.0865
     90  CZ       -31.0540  -25.2940   38.1380 C.cat 191  ARG191      0.5346
     91  NH1      -31.6660  -24.4900   38.9780 N.pl3 191  ARG191      0.1354
     92  NH2      -30.2350  -24.7700   37.2350 N.pl3 191  ARG191      0.1354
     93  N        -35.9240  -31.2440   45.1020 N.3   193  TYR193     -0.1241
     94  CA       -36.1320  -30.4190   46.2890 C.3   193  TYR193      0.1605
     95  C        -37.1700  -31.0820   47.1150 C.2   193  TYR193      0.2264
     96  O        -38.1250  -31.6630   46.5800 O.2   193  TYR193     -0.2867
     97  CB       -36.7060  -29.0240   45.9570 C.3   193  TYR193      0.0534
     98  CG       -36.0900  -28.2830   44.8090 C.ar  193  TYR193     -0.0201
     99  CD1      -36.4010  -28.6260   43.4960 C.ar  193  TYR193     -0.0009
    100  CD2      -35.2770  -27.1670   45.0340 C.ar  193  TYR193     -0.0009
    101  CE1      -35.8540  -27.9180   42.4200 C.ar  193  TYR193      0.0417
    102  CE2      -34.7440  -26.4380   43.9690 C.ar  193  TYR193      0.0417
    103  CZ       -35.0240  -26.8170   42.6620 C.ar  193  TYR193      0.1957
    104  OH       -34.4810  -26.1060   41.6080 O.3   193  TYR193     -0.2866
    105  N        -35.8720  -26.0780   52.6570 N.3   204  THR204     -0.1218
    106  CA       -35.8300  -26.8640   51.4220 C.3   204  THR204      0.1862
    107  C        -34.4530  -27.3600   51.2150 C.2   204  THR204      0.2287
    108  O        -33.5960  -26.5740   50.8670 O.2   204  THR204     -0.2866
    109  CB       -36.1170  -26.0740   50.1690 C.3   204  THR204      0.1770
    110  OG1      -37.3870  -25.4370   50.2450 O.3   204  THR204     -0.2211
    111  CG2      -36.1580  -26.9880   49.0700 C.3   204  THR204      0.0375
    112  N        -32.0390  -29.4580   48.7590 N.3   206  TYR206     -0.1241
    113  CA       -32.1520  -29.5960   47.3390 C.3   206  TYR206      0.1605
    114  C        -30.8270  -29.9650   46.7720 C.2   206  TYR206      0.2264
    115  O        -29.7800  -29.9230   47.4710 O.2   206  TYR206     -0.2867
    116  CB       -32.6580  -28.2950   46.7170 C.3   206  TYR206      0.0534
    117  CG       -31.7090  -27.1130   46.7010 C.ar  206  TYR206     -0.0201
    118  CD1      -31.5880  -26.2870   47.8030 C.ar  206  TYR206     -0.0009
    119  CD2      -30.9680  -26.8000   45.5400 C.ar  206  TYR206     -0.0009
    120  CE1      -30.7280  -25.1850   47.7890 C.ar  206  TYR206      0.0417
    121  CE2      -30.0990  -25.7180   45.5170 C.ar  206  TYR206      0.0417
    122  CZ       -29.9900  -24.8950   46.6440 C.ar  206  TYR206      0.1957
    123  OH       -29.1530  -23.7920   46.6220 O.3   206  TYR206     -0.2866
    124  N        -28.5540  -30.4450   42.7900 N.3   208  ARG208     -0.1245
    125  CA       -28.4180  -30.4110   41.3580 C.3   208  ARG208      0.1563
    126  C        -27.4070  -31.4990   40.9500 C.2   208  ARG208      0.2260
    127  O        -26.2680  -31.5170   41.4300 O.2   208  ARG208     -0.2867
    128  CB       -27.9660  -29.0260   40.9280 C.3   208  ARG208      0.0307
    129  CG       -28.8700  -27.8950   41.4240 C.3   208  ARG208      0.0489
    130  CD       -28.3710  -26.5570   40.9040 C.3   208  ARG208      0.2205
    131  NE       -29.2810  -25.4440   41.1140 N.pl3 208  ARG208     -0.0865
    132  CZ       -28.9420  -24.1610   40.9800 C.cat 208  ARG208      0.5346
    133  NH1      -27.7010  -23.8070   40.6580 N.pl3 208  ARG208      0.1354
    134  NH2      -29.8450  -23.2150   41.1930 N.pl3 208  ARG208      0.1354
    135  N        -18.5200  -15.7570   33.9540 N.3   225  ARG225     -0.1245
    136  CA       -19.9730  -15.5180   34.1340 C.3   225  ARG225      0.1563
    137  C        -20.9150  -16.1300   33.0720 C.2   225  ARG225      0.2260
    138  O        -20.4790  -16.5140   31.9870 O.2   225  ARG225     -0.2867
    139  CB       -20.3110  -14.0280   34.3560 C.3   225  ARG225      0.0307
    140  CG       -21.3640  -13.8020   35.4540 C.3   225  ARG225      0.0489
    141  CD       -21.0790  -14.6390   36.7080 C.3   225  ARG225      0.2205
    142  NE       -22.2020  -14.7030   37.6530 N.pl3 225  ARG225     -0.0865
    143  CZ       -22.6530  -15.8200   38.2310 C.cat 225  ARG225      0.5346
    144  NH1      -23.6710  -15.7570   39.0860 N.pl3 225  ARG225      0.1354
    145  NH2      -22.1040  -17.0020   37.9680 N.pl3 225  ARG225      0.1354
    146  N        -24.5410  -29.4230   43.1040 N.3   232  ARG232     -0.1245
    147  CA       -24.6320  -28.8750   44.4450 C.3   232  ARG232      0.1563
    148  C        -25.6790  -29.5040   45.3470 C.2   232  ARG232      0.2260
    149  O        -26.6800  -30.0910   44.9170 O.2   232  ARG232     -0.2867
    150  CB       -24.8640  -27.3560   44.4020 C.3   232  ARG232      0.0307
    151  CG       -26.0760  -26.9490   43.5800 C.3   232  ARG232      0.0489
    152  CD       -26.6100  -25.5890   43.9830 C.3   232  ARG232      0.2205
    153  NE       -25.8160  -24.4820   43.4400 N.pl3 232  ARG232     -0.0865
    154  CZ       -26.0650  -23.1850   43.6540 C.cat 232  ARG232      0.5346
    155  NH1      -25.2590  -22.2740   43.1160 N.pl3 232  ARG232      0.1354
    156  NH2      -27.1030  -22.7960   44.4110 N.pl3 232  ARG232      0.1354
    157  N        -32.2120  -24.0890   51.9120 N.3   236  PHE236     -0.1241
    158  CA       -32.7900  -22.7600   51.9440 C.3   236  PHE236      0.1605
    159  C        -33.7140  -22.6180   53.1370 C.2   236  PHE236      0.2264
    160  O        -34.5540  -23.4530   53.3300 O.2   236  PHE236     -0.2867
    161  CB       -33.5840  -22.5050   50.6730 C.3   236  PHE236      0.0534
    162  CG       -34.5800  -21.4100   50.8280 C.ar  236  PHE236     -0.0203
    163  CD1      -34.1940  -20.0830   50.6970 C.ar  236  PHE236     -0.0042
    164  CD2      -35.8980  -21.6920   51.1540 C.ar  236  PHE236     -0.0042
    165  CE1      -35.1140  -19.0620   50.8680 C.ar  236  PHE236     -0.0003
    166  CE2      -36.8120  -20.6700   51.3340 C.ar  236  PHE236     -0.0003
    167  CZ       -36.4240  -19.3580   51.1820 C.ar  236  PHE236     -0.0000
    168  N        -29.7010  -19.1130   52.6030 N.3   250  GLU250     -0.1245
    169  CA       -29.5010  -20.2160   51.7070 C.3   250  GLU250      0.1567
    170  C        -28.0370  -20.4830   51.7580 C.2   250  GLU250      0.2260
    171  O        -27.2560  -19.5540   51.8110 O.2   250  GLU250     -0.2867
    172  CB       -29.9650  -19.8970   50.2680 C.3   250  GLU250      0.0388
    173  CG       -29.8090  -21.1040   49.3110 C.3   250  GLU250      0.1160
    174  CD       -30.6570  -21.0390   48.0410 C.2   250  GLU250      0.3649
    175  OE1      -31.6940  -20.3250   48.0250 O.co2 250  GLU250     -0.2457
    176  OE2      -30.3020  -21.7380   47.0600 O.co2 250  GLU250     -0.2457
    177  N        -21.7150  -21.1240   48.1430 N.3   268  TYR268     -0.1241
    178  CA       -22.6820  -20.0690   47.9810 C.3   268  TYR268      0.1605
    179  C        -23.3300  -19.7530   49.3410 C.2   268  TYR268      0.2264
    180  O        -23.7160  -20.6640   50.0530 O.2   268  TYR268     -0.2867
    181  CB       -23.7300  -20.5280   46.9790 C.3   268  TYR268      0.0534
    182  CG       -24.9350  -19.6390   46.8770 C.ar  268  TYR268     -0.0201
    183  CD1      -26.1820  -20.0830   47.2920 C.ar  268  TYR268     -0.0009
    184  CD2      -24.8450  -18.3450   46.3730 C.ar  268  TYR268     -0.0009
    185  CE1      -27.3180  -19.2710   47.1820 C.ar  268  TYR268      0.0417
    186  CE2      -25.9760  -17.5270   46.2730 C.ar  268  TYR268      0.0417
    187  CZ       -27.2060  -18.0110   46.6750 C.ar  268  TYR268      0.1957
    188  OH       -28.3310  -17.2330   46.6030 O.3   268  TYR268     -0.2866
@<TRIPOS>BOND
     1    50    51    2
     2    50    49    1
     3   138   137    2
     4    49    48    1
     5    49    52    1
     6   137   136    1
     7    58    60   ar
     8    58    55   ar
     9    60    61   ar
    10    62    63    1
    11    52    53    1
    12   135   136    1
    13   136   139    1
    14    55    53   ar
    15    55    57   ar
    16    61    59   ar
    17   139   140    1
    18    63    64    1
    19    63    66    1
    20    64    65    2
    21    53    54   ar
    22    57    59   ar
    23    57    56   ar
    24   140   141    1
    25    66    67    1
    26    54    56   ar
    27   141   142    1
    28    67    68    1
    29    92    90    1
    30   142   143    2
    31   145   143    1
    32    69    68   ar
    33    68    70   ar
    34    90    89    2
    35    90    91    1
    36    89    88    1
    37   143   144    1
    38    82    83    1
    39    88    87    1
    40    43    45   ar
    41    43    41   ar
    42    87    86    1
    43    45    46   ar
    44    39    38    2
    45    40    41    1
    46    40    37    1
    47    41    42   ar
    48    36    37    1
    49    86    83    1
    50    38    37    1
    51    83    84    1
    52    46    47    1
    53    46    44   ar
    54    85    84    2
    55   133   132    1
    56   130   131    1
    57   130   129    1
    58   128   125    1
    59   128   129    1
    60   126   125    1
    61   126   127    2
    62   132   131    2
    63   132   134    1
    64    42    44   ar
    65   125   124    1
    66    80    79    1
    67   104   103    1
    68    26    24   ar
    69    25    24   ar
    70   101   103   ar
    71   101    99   ar
    72    24    23    1
    73    35    33   ar
    74   103   102   ar
    75    79    78    2
    76    79    81    1
    77    78    77    1
    78    73    72    1
    79    73    74    2
    80    33    32    1
    81    33    34   ar
    82    32    31    1
    83   146   147    1
    84   155   154    1
    85    72    75    1
    86    72    71    1
    87    75    76    1
    88   153   154    2
    89   153   152    1
    90    99    98   ar
    91   151   152    1
    92   151   150    1
    93   154   156    1
    94    76    77    1
    95    31    28    1
    96   102   100   ar
    97    23    22    1
    98    16    15   ar
    99    22    19    1
   100   150   147    1
   101   147   148    1
   102    28    29    1
   103    28    27    1
   104    98   100   ar
   105    98    97    1
   106    17    15   ar
   107   149   148    2
   108    15    14    1
   109    93    94    1
   110    29    30    2
   111   121   119   ar
   112   121   122   ar
   113   119   117   ar
   114    21    20    2
   115    19    20    1
   116    19    18    1
   117    97    94    1
   118     8     7    1
   119   186   184   ar
   120   186   187   ar
   121    94    95    1
   122    14    13    1
   123   184   182   ar
   124    13    10    1
   125    96    95    2
   126   188   187    1
   127   123   122    1
   128   122   120   ar
   129   187   185   ar
   130     7     6    1
   131   117   116    1
   132   117   118   ar
   133   116   113    1
   134   114   113    1
   135   114   115    2
   136   182   181    1
   137   182   183   ar
   138   181   178    1
   139   176   174   ar
   140   185   183   ar
   141   113   112    1
   142     5     6    1
   143     5     2    1
   144    12    11    2
   145     4     3    2
   146    11    10    1
   147   120   118   ar
   148    10     9    1
   149   178   177    1
   150   178   179    1
   151   175   174   ar
   152   174   173    1
   153     1     2    1
   154     3     2    1
   155   111   109    1
   156   173   172    1
   157   179   180    2
   158   109   110    1
   159   109   106    1
   160   172   169    1
   161   161   162    1
   162   161   158    1
   163   163   162   ar
   164   163   165   ar
   165   162   164   ar
   166   108   107    2
   167   165   167   ar
   168   164   166   ar
   169   167   166   ar
   170   107   106    1
   171   106   105    1
   172   169   170    1
   173   169   168    1
   174   170   171    2
   175   157   158    1
   176   158   159    1
   177   159   160    2
