@<TRIPOS>MOLECULE
tmp/2iwxA00.pdb
 117 107 0 0 0
SMALL
GASTEIGER

@<TRIPOS>ATOM
      1  N         56.8750   84.8500    0.3320 N.3    34  LEU34      -0.1245
      2  CA        55.8220   83.9820   -0.1870 C.3    34  LEU34       0.1561
      3  C         55.2340   84.5380   -1.4830 C.2    34  LEU34       0.2260
      4  O         54.8840   83.7470   -2.3700 O.2    34  LEU34      -0.2867
      5  CB        54.7120   83.7360    0.8700 C.3    34  LEU34       0.0270
      6  CG        55.2450   83.1430    2.1840 C.3    34  LEU34       0.0019
      7  CD1       54.0290   82.8570    3.0900 C.3    34  LEU34       0.0001
      8  CD2       56.0850   81.8650    1.8960 C.3    34  LEU34       0.0001
      9  N         57.7580   83.4290   -4.1370 N.3    37  ASN37      -0.1225
     10  CA        57.5920   82.0360   -4.5190 C.3    37  ASN37       0.1785
     11  C         56.3640   81.8610   -5.4060 C.2    37  ASN37       0.2597
     12  O         56.4250   81.0620   -6.3610 O.2    37  ASN37      -0.2718
     13  CB        57.4450   81.1420   -3.2900 C.3    37  ASN37       0.1169
     14  CG        58.7340   80.9540   -2.5600 C.2    37  ASN37       0.2627
     15  OD1       59.7830   81.4480   -2.9480 O.2    37  ASN37      -0.2716
     16  ND2       58.6480   80.1840   -1.4630 N.am   37  ASN37      -0.0877
     17  N         55.2620   82.5430   -5.0640 N.am   38  ALA38      -0.1979
     18  CA        54.0310   82.4830   -5.8600 C.3    38  ALA38       0.1597
     19  C         54.3080   82.9810   -7.2810 C.2    38  ALA38       0.2287
     20  O         53.9080   82.3390   -8.2680 O.2    38  ALA38      -0.2864
     21  CB        52.9470   83.3150   -5.1890 C.3    38  ALA38       0.0319
     22  N         57.1380   83.0750   -8.8570 N.3    40  ASP40      -0.1225
     23  CA        57.9960   82.0940   -9.5210 C.3    40  ASP40       0.1805
     24  C         57.1950   80.8930  -10.0180 C.2    40  ASP40       0.2597
     25  O         57.4420   80.4370  -11.1340 O.2    40  ASP40      -0.2718
     26  CB        59.1350   81.6370   -8.6200 C.3    40  ASP40       0.1424
     27  CG        60.1480   82.7310   -8.3200 C.2    40  ASP40       0.3668
     28  OD1       60.1850   83.7970   -8.9850 O.co2  40  ASP40      -0.2456
     29  OD2       60.9740   82.4970   -7.4070 O.co2  40  ASP40      -0.2456
     30  N         56.2450   80.3960   -9.2120 N.am   41  ALA41      -0.1979
     31  CA        55.4280   79.2520   -9.6070 C.3    41  ALA41       0.1597
     32  C         54.5290   79.6170  -10.7830 C.2    41  ALA41       0.2287
     33  O         54.2790   78.7800  -11.6650 O.2    41  ALA41      -0.2864
     34  CB        54.6230   78.7860   -8.4470 C.3    41  ALA41       0.0319
     35  N         56.5500   79.5350  -13.9570 N.3    44  LYS44      -0.1245
     36  CA        56.7820   78.1810  -14.4620 C.3    44  LYS44       0.1561
     37  C         55.6030   77.6560  -15.2760 C.2    44  LYS44       0.2260
     38  O         55.8320   77.0650  -16.3370 O.2    44  LYS44      -0.2867
     39  CB        57.0600   77.1990  -13.3090 C.3    44  LYS44       0.0271
     40  CG        58.1930   77.5400  -12.3520 C.3    44  LYS44       0.0035
     41  CD        59.4790   77.7180  -12.9690 C.3    44  LYS44       0.0206
     42  CE        60.5110   78.1300  -11.9010 C.3    44  LYS44       0.1093
     43  NZ        61.7450   78.4970  -12.6200 N.3    44  LYS44      -0.1314
     44  N         48.2920   80.9990   -5.1610 N.3    79  ASP79      -0.1239
     45  CA        48.6800   81.3100   -6.5230 C.3    79  ASP79       0.1674
     46  C         48.0830   80.2720   -7.4400 C.2    79  ASP79       0.2266
     47  O         47.7840   79.1500   -7.0380 O.2    79  ASP79      -0.2867
     48  CB        50.2210   81.4020   -6.6770 C.3    79  ASP79       0.1410
     49  CG        50.9330   80.0860   -6.4470 C.2    79  ASP79       0.3668
     50  OD1       51.6450   79.9550   -5.4250 O.co2  79  ASP79      -0.2456
     51  OD2       50.8180   79.1760   -7.2800 O.co2  79  ASP79      -0.2456
     52  N         52.2080   76.5480  -11.0890 N.3    82  ILE82      -0.1231
     53  CA        52.3500   75.1820  -11.5880 C.3    82  ILE82       0.1692
     54  C         51.8610   74.1200  -10.6040 C.2    82  ILE82       0.2593
     55  O         51.4750   73.0190  -11.0020 O.2    82  ILE82      -0.2718
     56  CB        53.8120   74.9320  -12.0210 C.3    82  ILE82       0.0266
     57  CG1       53.9690   73.6200  -12.7850 C.3    82  ILE82       0.0019
     58  CG2       54.7640   74.9970  -10.8010 C.3    82  ILE82       0.0020
     59  CD1       55.2690   73.5720  -13.5560 C.3    82  ILE82       0.0001
     60  N         51.8070   74.4440   -9.3140 N.am   83  GLY83      -0.1942
     61  CA        51.4300   73.4420   -8.3300 C.3    83  GLY83       0.2014
     62  C         52.4440   72.3460   -8.1290 C.2    83  GLY83       0.2638
     63  O         53.4870   72.2740   -8.8170 O.2    83  GLY83      -0.2714
     64  N         52.1040   71.4680   -7.1770 N.am   84  MET84      -0.1976
     65  CA        52.9770   70.3770   -6.7810 C.3    84  MET84       0.1605
     66  C         52.1870   69.0990   -6.6270 C.2    84  MET84       0.2287
     67  O         51.1260   69.0750   -5.9990 O.2    84  MET84      -0.2864
     68  CB        53.6370   70.6890   -5.4360 C.3    84  MET84       0.0413
     69  CG        54.6850   71.7980   -5.5130 C.3    84  MET84       0.0598
     70  SD        55.3320   72.2540   -3.9160 S.3    84  MET84      -0.1393
     71  CE        54.0240   73.3260   -3.3200 C.3    84  MET84       0.0692
     72  N         59.9120   68.9700   -2.3430 N.3    92  ASN92      -0.1225
     73  CA        60.2420   70.4020   -2.2780 C.3    92  ASN92       0.1785
     74  C         60.2780   70.9440   -0.8700 C.2    92  ASN92       0.2597
     75  O         61.0150   71.8980   -0.6060 O.2    92  ASN92      -0.2718
     76  CB        59.2740   71.2480   -3.1060 C.3    92  ASN92       0.1169
     77  CG        59.3970   71.0070   -4.6020 C.2    92  ASN92       0.2627
     78  OD1       60.2050   70.1890   -5.0500 O.2    92  ASN92      -0.2716
     79  ND2       58.5750   71.7010   -5.3760 N.am   92  ASN92      -0.0877
     80  N         59.4650   70.3720    0.0180 N.am   93  LEU93      -0.1980
     81  CA        59.2290   70.9750    1.3270 C.3    93  LEU93       0.1596
     82  C         59.8970   70.3160    2.5190 C.2    93  LEU93       0.2287
     83  O         60.1830   70.9880    3.5100 O.2    93  LEU93      -0.2864
     84  CB        57.7220   71.1960    1.5750 C.3    93  LEU93       0.0297
     85  CG        57.0030   72.0500    0.5280 C.3    93  LEU93       0.0022
     86  CD1       55.5030   72.1310    0.7890 C.3    93  LEU93       0.0001
     87  CD2       57.6070   73.4550    0.4340 C.3    93  LEU93       0.0001
     88  N         67.3730   80.4390   -1.3970 N.3   121  GLY121     -0.1225
     89  CA        66.3400   79.5450   -1.8870 C.3   121  GLY121      0.1811
     90  C         65.4400   78.8710   -0.8810 C.2   121  GLY121      0.2280
     91  O         64.6920   77.9360   -1.2250 O.2   121  GLY121     -0.2866
     92  N         60.5750   80.1060    1.9270 N.3   124  PHE124     -0.1241
     93  CA        59.3360   79.4790    2.4140 C.3   124  PHE124      0.1605
     94  C         59.3140   79.4100    3.9370 C.2   124  PHE124      0.2264
     95  O         58.3090   79.7300    4.5760 O.2   124  PHE124     -0.2867
     96  CB        59.2470   78.0610    1.8440 C.3   124  PHE124      0.0534
     97  CG        58.1950   77.1880    2.4950 C.ar  124  PHE124     -0.0203
     98  CD1       56.8520   77.3980    2.2430 C.ar  124  PHE124     -0.0042
     99  CD2       58.5560   76.1300    3.3200 C.ar  124  PHE124     -0.0042
    100  CE1       55.8780   76.5680    2.7980 C.ar  124  PHE124     -0.0003
    101  CE2       57.5760   75.2780    3.8740 C.ar  124  PHE124     -0.0003
    102  CZ        56.2440   75.5120    3.6000 C.ar  124  PHE124     -0.0000
    103  N         48.6620   76.5990   -5.7040 N.3   171  THR171     -0.1218
    104  CA        49.0620   76.3150   -4.3030 C.3   171  THR171      0.1862
    105  C         48.4870   77.3520   -3.3760 C.2   171  THR171      0.2287
    106  O         48.4560   78.5380   -3.6940 O.2   171  THR171     -0.2866
    107  CB        50.6140   76.3010   -4.2080 C.3   171  THR171      0.1770
    108  OG1       51.1100   75.2510   -5.0500 O.3   171  THR171     -0.2211
    109  CG2       51.1400   76.0270   -2.8070 C.3   171  THR171      0.0375
    110  N         49.1770   78.5320    0.5850 N.3   173  LEU173     -0.1245
    111  CA        49.8450   78.4480    1.8930 C.3   173  LEU173      0.1561
    112  C         48.8550   78.9970    2.9020 C.2   173  LEU173      0.2260
    113  O         48.4870   80.2030    2.8560 O.2   173  LEU173     -0.2867
    114  CB        51.1160   79.2870    1.9160 C.3   173  LEU173      0.0270
    115  CG        52.3790   78.5340    1.4730 C.3   173  LEU173      0.0019
    116  CD1       52.3360   77.9650    0.0590 C.3   173  LEU173      0.0001
    117  CD2       53.5990   79.4360    1.6360 C.3   173  LEU173      0.0001
@<TRIPOS>BOND
     1    38    37    2
     2    37    36    1
     3    36    35    1
     4    36    39    1
     5    59    57    1
     6    39    40    1
     7    41    40    1
     8    41    42    1
     9    57    56    1
    10    43    42    1
    11    56    53    1
    12    56    58    1
    13    33    32    2
    14    53    52    1
    15    53    54    1
    16    25    24    2
    17    55    54    2
    18    32    31    1
    19    54    60   am
    20    24    23    1
    21    24    30   am
    22    31    30    1
    23    31    34    1
    24    23    22    1
    25    23    26    1
    26    60    61    1
    27    28    27   ar
    28    63    62    2
    29    26    27    1
    30    61    62    1
    31    27    29   ar
    32    20    19    2
    33    62    64   am
    34    46    47    2
    35    46    45    1
    36    19    18    1
    37    51    49   ar
    38    64    65    1
    39    65    66    1
    40    65    68    1
    41    48    45    1
    42    48    49    1
    43    66    67    2
    44    45    44    1
    45    49    50   ar
    46    12    11    2
    47    18    21    1
    48    18    17    1
    49   103   104    1
    50    69    68    1
    51    69    70    1
    52    11    17   am
    53    11    10    1
    54    79    77   am
    55    78    77    2
    56   108   107    1
    57    77    76    1
    58    10     9    1
    59    10    13    1
    60   104   107    1
    61   104   105    1
    62   107   109    1
    63    70    71    1
    64   106   105    2
    65    13    14    1
    66    76    73    1
    67    15    14    2
    68    14    16   am
    69     4     3    2
    70    72    73    1
    71    73    74    1
    72    89    88    1
    73    89    90    1
    74     3     2    1
    75    91    90    2
    76    74    75    2
    77    74    80   am
    78     2     1    1
    79     2     5    1
    80    80    81    1
    81   116   115    1
    82    87    85    1
    83    85    86    1
    84    85    84    1
    85   110   111    1
    86     5     6    1
    87    81    84    1
    88    81    82    1
    89   115   117    1
    90   115   114    1
    91    96    93    1
    92    96    97    1
    93   111   114    1
    94   111   112    1
    95     8     6    1
    96    92    93    1
    97     6     7    1
    98    98    97   ar
    99    98   100   ar
   100    93    94    1
   101    97    99   ar
   102    82    83    2
   103   100   102   ar
   104   113   112    2
   105    99   101   ar
   106   102   101   ar
   107    94    95    2
