@<TRIPOS>MOLECULE
tmp/2iwzB00.pdb
 97 94 0 0 0
SMALL
GASTEIGER

@<TRIPOS>ATOM
      1  N         15.0220   32.0440   34.8560 N.3   120  GLY120     -0.1210
      2  CA        15.1690   33.4580   35.1690 C.3   120  GLY120      0.1956
      3  C         16.5630   33.8940   35.5940 C.2   120  GLY120      0.2611
      4  O         16.9550   35.0200   35.3070 O.2   120  GLY120     -0.2717
      5  N         17.2980   33.0280   36.2970 N.am  121  MET121     -0.1979
      6  CA        18.5940   33.4230   36.8420 C.3   121  MET121      0.1605
      7  C         19.6250   32.3150   36.7760 C.2   121  MET121      0.2287
      8  O         19.3040   31.1520   36.9750 O.2   121  MET121     -0.2864
      9  CB        18.4480   33.8920   38.2870 C.3   121  MET121      0.0413
     10  CG        19.6930   34.5990   38.8500 C.3   121  MET121      0.0598
     11  SD        19.3670   35.4330   40.4230 S.3   121  MET121     -0.1393
     12  CE        17.9810   36.4090   39.9180 C.3   121  MET121      0.0692
     13  N         13.1750   37.2980   33.4940 N.3   175  ALA175     -0.1231
     14  CA        12.9260   37.4820   34.9110 C.3   175  ALA175      0.1694
     15  C         11.6670   36.7220   35.3220 C.2   175  ALA175      0.2592
     16  O         11.5090   35.5380   34.9680 O.2   175  ALA175     -0.2718
     17  CB        12.8350   38.9950   35.2500 C.3   175  ALA175      0.0304
     18  N         10.7610   37.3730   36.0370 N.am  176  CYS176     -0.1970
     19  CA         9.5470   36.6900   36.5000 C.3   176  CYS176      0.1712
     20  C          8.4540   36.4480   35.4370 C.2   176  CYS176      0.2296
     21  O          7.4210   35.8360   35.7340 O.2   176  CYS176     -0.2864
     22  CB         9.0030   37.3770   37.7440 C.3   176  CYS176      0.0983
     23  SG        10.2590   37.3560   39.1000 S.3   176  CYS176     -0.0798
     24  N         13.5030   27.5930   38.1180 N.3   204  ASP204     -0.1239
     25  CA        14.4710   28.4120   38.8600 C.3   204  ASP204      0.1674
     26  C         14.6930   27.7350   40.2000 C.2   204  ASP204      0.2266
     27  O         13.7660   27.2150   40.8300 O.2   204  ASP204     -0.2867
     28  CB        14.0130   29.8760   39.0820 C.3   204  ASP204      0.1410
     29  CG        14.6450   30.8830   38.0700 C.2   204  ASP204      0.3668
     30  OD1       15.8590   30.7930   37.7500 O.co2 204  ASP204     -0.2456
     31  OD2       13.9270   31.7780   37.5960 O.co2 204  ASP204     -0.2456
     32  N         17.8930   40.2330   46.4740 N.3   215  PHE215     -0.1241
     33  CA        16.4920   40.6120   46.3490 C.3   215  PHE215      0.1605
     34  C         16.0370   41.4860   47.5160 C.2   215  PHE215      0.2264
     35  O         15.2080   42.3820   47.3300 O.2   215  PHE215     -0.2867
     36  CB        15.6010   39.3820   46.2090 C.3   215  PHE215      0.0534
     37  CG        15.5690   38.8360   44.8130 C.ar  215  PHE215     -0.0203
     38  CD1       14.7140   39.3820   43.8650 C.ar  215  PHE215     -0.0042
     39  CD2       16.3960   37.7800   44.4530 C.ar  215  PHE215     -0.0042
     40  CE1       14.6740   38.8700   42.5800 C.ar  215  PHE215     -0.0003
     41  CE2       16.3640   37.2580   43.1480 C.ar  215  PHE215     -0.0003
     42  CZ        15.5020   37.8080   42.2270 C.ar  215  PHE215     -0.0000
     43  N          7.4970   39.9480   48.3060 N.3   241  PHE241     -0.1241
     44  CA         7.2720   38.5680   47.9180 C.3   241  PHE241      0.1605
     45  C          8.1260   37.5450   48.6760 C.2   241  PHE241      0.2264
     46  O          9.0390   37.9090   49.4340 O.2   241  PHE241     -0.2867
     47  CB         7.2940   38.4110   46.3760 C.3   241  PHE241      0.0534
     48  CG         8.6570   38.4040   45.7230 C.ar  241  PHE241     -0.0203
     49  CD1        9.0540   39.4980   44.9530 C.ar  241  PHE241     -0.0042
     50  CD2        9.4580   37.2580   45.7150 C.ar  241  PHE241     -0.0042
     51  CE1       10.2820   39.4920   44.2560 C.ar  241  PHE241     -0.0003
     52  CE2       10.6830   37.2500   45.0210 C.ar  241  PHE241     -0.0003
     53  CZ        11.0890   38.3800   44.3030 C.ar  241  PHE241     -0.0000
     54  N          6.8930   32.7350   45.2690 N.3   352  HIS352     -0.1241
     55  CA         7.1700   33.2600   43.9390 C.3   352  HIS352      0.1621
     56  C          8.2380   32.4010   43.2970 C.2   352  HIS352      0.2264
     57  O          9.3970   32.4260   43.7250 O.2   352  HIS352     -0.2867
     58  CB         7.6890   34.6910   44.0760 C.3   352  HIS352      0.0745
     59  CG         7.7240   35.4310   42.7850 C.ar  352  HIS352      0.0817
     60  ND1        7.7750   34.7890   41.5660 N.ar  352  HIS352     -0.2268
     61  CD2        7.7310   36.7610   42.5200 C.ar  352  HIS352      0.1154
     62  CE1        7.7920   35.6960   40.6020 C.ar  352  HIS352      0.1986
     63  NE2        7.7820   36.8970   41.1570 N.ar  352  HIS352     -0.2212
     64  N          9.6200   32.6600   40.4750 N.3   354  LEU354     -0.1245
     65  CA        10.5620   33.4320   39.6440 C.3   354  LEU354      0.1561
     66  C         10.3890   32.9970   38.1830 C.2   354  LEU354      0.2260
     67  O          9.2840   33.1190   37.6820 O.2   354  LEU354     -0.2867
     68  CB        12.0080   33.2970   40.1430 C.3   354  LEU354      0.0270
     69  CG        12.2650   33.5750   41.6390 C.3   354  LEU354      0.0019
     70  CD1       13.7550   33.4830   41.9740 C.3   354  LEU354      0.0001
     71  CD2       11.7120   34.9140   42.0540 C.3   354  LEU354      0.0001
     72  N          4.4920   39.4090   35.3630 N.3   412  PHE412     -0.1227
     73  CA         5.2380   40.6480   35.1710 C.3   412  PHE412      0.1736
     74  C          6.6230   40.4510   35.7570 C.2   412  PHE412      0.2596
     75  O          6.8010   39.6820   36.7110 O.2   412  PHE412     -0.2718
     76  CB         4.5320   41.7780   35.8950 C.3   412  PHE412      0.0547
     77  CG         3.0540   41.8450   35.6220 C.ar  412  PHE412     -0.0202
     78  CD1        2.5600   41.7870   34.3060 C.ar  412  PHE412     -0.0042
     79  CD2        2.1400   41.9310   36.6740 C.ar  412  PHE412     -0.0042
     80  CE1        1.1990   41.8250   34.0430 C.ar  412  PHE412     -0.0003
     81  CE2        0.7610   41.9940   36.4210 C.ar  412  PHE412     -0.0003
     82  CZ         0.2870   41.9490   35.1150 C.ar  412  PHE412     -0.0000
     83  N          7.6040   41.1480   35.2130 N.am  413  GLY413     -0.1942
     84  CA         8.9640   40.9670   35.6940 C.3   413  GLY413      0.2014
     85  C          9.7330   42.2730   35.7770 C.2   413  GLY413      0.2638
     86  O          9.3170   43.3010   35.1930 O.2   413  GLY413     -0.2714
     87  N         10.8390   42.2350   36.5210 N.am  414  PHE414     -0.1973
     88  CA        11.8340   43.3090   36.5060 C.3   414  PHE414      0.1639
     89  C         12.1770   43.6420   35.0660 C.2   414  PHE414      0.2290
     90  O         12.2270   42.7440   34.2160 O.2   414  PHE414     -0.2864
     91  CB        13.1240   42.8710   37.2140 C.3   414  PHE414      0.0560
     92  CG        13.0410   42.8360   38.7350 C.ar  414  PHE414     -0.0200
     93  CD1       11.8360   43.0190   39.4110 C.ar  414  PHE414     -0.0042
     94  CD2       14.1930   42.5780   39.4810 C.ar  414  PHE414     -0.0042
     95  CE1       11.7760   42.9590   40.8110 C.ar  414  PHE414     -0.0003
     96  CE2       14.1500   42.5220   40.8760 C.ar  414  PHE414     -0.0003
     97  CZ        12.9290   42.7200   41.5450 C.ar  414  PHE414     -0.0000
@<TRIPOS>BOND
     1    13    14    1
     2    80    78   ar
     3    80    82   ar
     4    90    89    2
     5    78    77   ar
     6     1     2    1
     7    14    17    1
     8    14    15    1
     9    16    15    2
    10    89    88    1
    11    82    81   ar
    12     2     3    1
    13    73    72    1
    14    73    74    1
    15    73    76    1
    16    86    85    2
    17    83    84    1
    18    83    74   am
    19     4     3    2
    20    15    18   am
    21    20    21    2
    22    20    19    1
    23     3     5   am
    24    77    76    1
    25    77    79   ar
    26    84    85    1
    27    74    75    2
    28    85    87   am
    29    18    19    1
    30     5     6    1
    31    81    79   ar
    32    19    22    1
    33    88    87    1
    34    88    91    1
    35     7     6    1
    36     7     8    2
    37     6     9    1
    38    91    92    1
    39    31    29   ar
    40    67    66    2
    41    22    23    1
    42    30    29   ar
    43    29    28    1
    44    24    25    1
    45    66    65    1
    46     9    10    1
    47    92    93   ar
    48    92    94   ar
    49    10    11    1
    50    25    28    1
    51    25    26    1
    52    93    95   ar
    53    94    96   ar
    54    65    68    1
    55    65    64    1
    56    12    11    1
    57    68    69    1
    58    26    27    2
    59    62    63   ar
    60    62    60   ar
    61    95    97   ar
    62    96    97   ar
    63    63    61   ar
    64    60    59   ar
    65    69    70    1
    66    69    71    1
    67    42    40   ar
    68    42    41   ar
    69    61    59   ar
    70    40    38   ar
    71    59    58    1
    72    41    39   ar
    73    56    57    2
    74    56    55    1
    75    38    37   ar
    76    55    58    1
    77    55    54    1
    78    51    53   ar
    79    51    49   ar
    80    53    52   ar
    81    39    37   ar
    82    37    36    1
    83    49    48   ar
    84    52    50   ar
    85    50    48   ar
    86    48    47    1
    87    36    33    1
    88    33    32    1
    89    33    34    1
    90    47    44    1
    91    35    34    2
    92    44    43    1
    93    44    45    1
    94    45    46    2
