@<TRIPOS>MOLECULE
tmp/2ix0A00.pdb
 108 107 0 0 0
SMALL
GASTEIGER

@<TRIPOS>ATOM
      1  N         22.7790   10.6340   13.9000 N.3    73  GLU73      -0.1245
      2  CA        22.5120   10.9250   15.2930 C.3    73  GLU73       0.1567
      3  C         22.2370    9.6090   15.9940 C.2    73  GLU73       0.2260
      4  O         21.3530    8.8660   15.5760 O.2    73  GLU73      -0.2867
      5  CB        21.2920   11.8410   15.4240 C.3    73  GLU73       0.0388
      6  CG        21.4030   12.8520   16.5800 C.3    73  GLU73       0.1160
      7  CD        20.0380   13.2900   17.1400 C.2    73  GLU73       0.3649
      8  OE1       19.0490   12.5360   16.9820 O.co2  73  GLU73      -0.2457
      9  OE2       19.9520   14.3830   17.7480 O.co2  73  GLU73      -0.2457
     10  N         20.6380    7.1760   18.7010 N.3    75  PHE75      -0.1227
     11  CA        19.5900    7.0260   19.6940 C.3    75  PHE75       0.1736
     12  C         20.0710    7.2290   21.1440 C.2    75  PHE75       0.2595
     13  O         19.4310    7.9240   21.9430 O.2    75  PHE75      -0.2718
     14  CB        19.0370    5.6090   19.5970 C.3    75  PHE75       0.0547
     15  CG        17.6740    5.4510   20.1950 C.ar   75  PHE75      -0.0202
     16  CD1       16.6170    6.2290   19.7510 C.ar   75  PHE75      -0.0042
     17  CD2       17.4370    4.5120   21.1810 C.ar   75  PHE75      -0.0042
     18  CE1       15.3540    6.0530   20.2730 C.ar   75  PHE75      -0.0003
     19  CE2       16.1730    4.3370   21.7040 C.ar   75  PHE75      -0.0003
     20  CZ        15.1290    5.1020   21.2510 C.ar   75  PHE75      -0.0000
     21  N         21.1870    6.5880   21.4810 N.am   76  LEU76      -0.1966
     22  CA        21.5980    6.4690   22.8740 C.3    76  LEU76       0.1728
     23  C         22.8820    7.2120   23.2020 C.2    76  LEU76       0.2617
     24  O         23.9350    7.0300   22.5830 O.2    76  LEU76      -0.2715
     25  CB        21.7350    5.0090   23.2300 C.3    76  LEU76       0.0311
     26  CG        21.7810    4.5190   24.6620 C.3    76  LEU76       0.0022
     27  CD1       20.4380    4.8560   25.3540 C.3    76  LEU76       0.0001
     28  CD2       22.0590    2.9940   24.6760 C.3    76  LEU76       0.0001
     29  N         22.7250    8.0630   24.1910 N.am   77  THR77      -0.1937
     30  CA        23.7810    8.8460   24.8140 C.3    77  THR77       0.2028
     31  C         24.1070    8.5160   26.2590 C.2    77  THR77       0.2642
     32  O         24.7550    7.5280   26.5450 O.2    77  THR77      -0.2714
     33  CB        23.8240   10.3450   24.4250 C.3    77  THR77       0.1808
     34  OG1       22.6490   10.9850   24.9530 O.3    77  THR77      -0.2208
     35  CG2       23.8540   10.5250   22.9350 C.3    77  THR77       0.0379
     36  N         23.5520    9.3390   27.1460 N.am   78  ARG78      -0.1963
     37  CA        23.3800    9.0560   28.5650 C.3    78  ARG78       0.1729
     38  C         22.1400    8.2000   28.8000 C.2    78  ARG78       0.2616
     39  O         21.0640    8.4440   28.2600 O.2    78  ARG78      -0.2715
     40  CB        23.2180   10.3670   29.3330 C.3    78  ARG78       0.0348
     41  CG        23.4520   10.2420   30.8340 C.3    78  ARG78       0.0492
     42  CD        23.1290   11.5640   31.5260 C.3    78  ARG78       0.2205
     43  NE        23.2420   11.4700   32.9840 N.pl3  78  ARG78      -0.0865
     44  CZ        22.2710   11.0800   33.8140 C.cat  78  ARG78       0.5346
     45  NH1       21.0860   10.7030   33.3630 N.pl3  78  ARG78       0.1354
     46  NH2       22.4900   11.0610   35.1160 N.pl3  78  ARG78       0.1354
     47  N         22.3030    7.1790   29.6140 N.am   79  PHE79      -0.1960
     48  CA        21.2420    6.2660   29.8650 C.3    79  PHE79       0.1771
     49  C         21.4350    5.5220   31.1720 C.2    79  PHE79       0.2619
     50  O         22.4770    5.6390   31.8270 O.2    79  PHE79      -0.2715
     51  CB        21.1200    5.2870   28.6980 C.3    79  PHE79       0.0574
     52  CG        22.2090    4.2490   28.6240 C.ar   79  PHE79      -0.0200
     53  CD1       23.4460    4.5540   28.0750 C.ar   79  PHE79      -0.0042
     54  CD2       21.9670    2.9450   29.0140 C.ar   79  PHE79      -0.0042
     55  CE1       24.4290    3.5820   27.9660 C.ar   79  PHE79      -0.0003
     56  CE2       22.9580    1.9760   28.9120 C.ar   79  PHE79      -0.0003
     57  CZ        24.1760    2.2990   28.3810 C.ar   79  PHE79      -0.0000
     58  N         20.4170    4.7620   31.5520 N.am   80  VAL80      -0.1977
     59  CA        20.5450    3.8890   32.7090 C.3    80  VAL80       0.1596
     60  C         20.3010    2.4310   32.3290 C.2    80  VAL80       0.2287
     61  O         19.7260    2.1080   31.2780 O.2    80  VAL80      -0.2864
     62  CB        19.6210    4.3320   33.8700 C.3    80  VAL80       0.0276
     63  CG1       19.9810    5.7660   34.3390 C.3    80  VAL80       0.0022
     64  CG2       18.1150    4.2310   33.4860 C.3    80  VAL80       0.0022
     65  N         20.5650   -1.3690   28.4240 N.3    94  PRO94      -0.2102
     66  CA        19.8110   -0.1390   28.6690 C.3    94  PRO94       0.1504
     67  C         18.4250   -0.4420   29.1820 C.2    94  PRO94       0.2576
     68  O         17.8650   -1.4400   28.8080 O.2    94  PRO94      -0.2718
     69  CB        19.7380    0.5040   27.2820 C.3    94  PRO94       0.0282
     70  CG        20.9200   -0.0560   26.5420 C.3    94  PRO94       0.0208
     71  CD        21.0100   -1.4700   27.0210 C.3    94  PRO94       0.0893
     72  N         17.8730    0.4100   30.0340 N.am   95  ASP95      -0.1960
     73  CA        16.5150    0.2010   30.5500 C.3    95  ASP95       0.1840
     74  C         15.3720    0.4350   29.5330 C.2    95  ASP95       0.2622
     75  O         14.2600   -0.0840   29.6690 O.2    95  ASP95      -0.2715
     76  CB        16.2990    1.0470   31.7920 C.3    95  ASP95       0.1450
     77  CG        14.9680    0.7880   32.4170 C.2    95  ASP95       0.3671
     78  OD1       14.6490   -0.3960   32.6160 O.co2  95  ASP95      -0.2456
     79  OD2       14.2380    1.7470   32.6820 O.co2  95  ASP95      -0.2456
     80  N         15.6560    1.2440   28.5340 N.am   96  HIS96      -0.1973
     81  CA        14.9900    1.1310   27.2420 C.3    96  HIS96       0.1656
     82  C         14.2980   -0.1440   26.7590 C.2    96  HIS96       0.2291
     83  O         14.9560   -1.1040   26.4050 O.2    96  HIS96      -0.2864
     84  CB        15.5500    2.0460   26.1510 C.3    96  HIS96       0.0771
     85  CG        14.5430    2.4610   25.1460 C.ar   96  HIS96       0.0820
     86  ND1       14.0850    3.7570   25.0380 N.ar   96  HIS96      -0.2267
     87  CD2       13.8880    1.7460   24.2060 C.ar   96  HIS96       0.1154
     88  CE1       13.1820    3.8180   24.0750 C.ar   96  HIS96       0.1986
     89  NE2       13.0440    2.6100   23.5550 N.ar   96  HIS96      -0.2212
     90  N         15.6640   -1.6650   23.6260 N.3    99  LEU99      -0.1245
     91  CA        17.1140   -1.9220   23.5550 C.3    99  LEU99       0.1561
     92  C         17.4740   -3.1190   24.4210 C.2    99  LEU99       0.2260
     93  O         17.6010   -3.0000   25.6290 O.2    99  LEU99      -0.2867
     94  CB        17.9060   -0.6870   23.9990 C.3    99  LEU99       0.0270
     95  CG        17.5920    0.5900   23.2000 C.3    99  LEU99       0.0019
     96  CD1       18.3590    1.7680   23.7730 C.3    99  LEU99       0.0001
     97  CD2       17.9040    0.4050   21.7060 C.3    99  LEU99       0.0001
     98  N         17.9550    8.6990   36.2960 N.3   160  ARG160     -0.1245
     99  CA        17.7390    8.7410   34.8520 C.3   160  ARG160      0.1563
    100  C         17.4700   10.1730   34.3660 C.2   160  ARG160      0.2260
    101  O         17.9250   10.5470   33.3040 O.2   160  ARG160     -0.2867
    102  CB        16.6540    7.7440   34.3910 C.3   160  ARG160      0.0307
    103  CG        15.2250    8.2460   34.3760 C.3   160  ARG160      0.0489
    104  CD        14.2690    7.0760   34.2970 C.3   160  ARG160      0.2205
    105  NE        14.5080    6.3350   33.0730 N.pl3 160  ARG160     -0.0865
    106  CZ        14.5000    5.0110   32.9490 C.cat 160  ARG160      0.5346
    107  NH1       14.2800    4.2040   33.9830 N.pl3 160  ARG160      0.1354
    108  NH2       14.7420    4.4960   31.7650 N.pl3 160  ARG160      0.1354
@<TRIPOS>BOND
     1     1     2    1
     2     2     5    1
     3     2     3    1
     4     5     6    1
     5     4     3    2
     6     6     7    1
     7     8     7   ar
     8     7     9   ar
     9    10    11    1
    10    14    11    1
    11    14    15    1
    12    11    12    1
    13    16    15   ar
    14    16    18   ar
    15    15    17   ar
    16    18    20   ar
    17    12    21   am
    18    12    13    2
    19    17    19   ar
    20    20    19   ar
    21    21    22    1
    22    97    95    1
    23    24    23    2
    24    22    23    1
    25    22    25    1
    26    35    33    1
    27    95    96    1
    28    95    94    1
    29    23    29   am
    30    25    26    1
    31    89    88   ar
    32    89    87   ar
    33    91    90    1
    34    91    94    1
    35    91    92    1
    36    88    86   ar
    37    29    30    1
    38    87    85   ar
    39    92    93    2
    40    33    30    1
    41    33    34    1
    42    26    28    1
    43    26    27    1
    44    30    31    1
    45    86    85   ar
    46    85    84    1
    47    84    81    1
    48    31    32    2
    49    31    36   am
    50    83    82    2
    51    70    71    1
    52    70    69    1
    53    82    81    1
    54    71    65    1
    55    36    37    1
    56    81    80    1
    57    69    66    1
    58    55    53   ar
    59    55    57   ar
    60    53    52   ar
    61    39    38    2
    62    57    56   ar
    63    65    66    1
    64    80    74   am
    65    37    38    1
    66    37    40    1
    67    52    51    1
    68    52    54   ar
    69    66    67    1
    70    51    48    1
    71    38    47   am
    72    68    67    2
    73    56    54   ar
    74    67    72   am
    75    40    41    1
    76    74    75    2
    77    74    73    1
    78    47    48    1
    79    48    49    1
    80    72    73    1
    81    73    76    1
    82    41    42    1
    83    49    58   am
    84    49    50    2
    85    61    60    2
    86    42    43    1
    87    58    59    1
    88   108   106    1
    89    76    77    1
    90    60    59    1
    91    77    78   ar
    92    77    79   ar
    93    59    62    1
    94   106   105    2
    95   106   107    1
    96    43    44    2
    97   105   104    1
    98   101   100    2
    99    45    44    1
   100    64    62    1
   101    44    46    1
   102    62    63    1
   103   104   103    1
   104   100    99    1
   105   103   102    1
   106   102    99    1
   107    99    98    1
