@<TRIPOS>MOLECULE
tmp/2ix4B00.pdb
 98 95 0 0 0
SMALL
GASTEIGER

@<TRIPOS>ATOM
      1  N         62.9850   43.1210   53.0960 N.3   123  GLY123     -0.1210
      2  CA        62.7860   42.6630   51.7220 C.3   123  GLY123      0.1956
      3  C         62.3580   41.2140   51.5680 C.2   123  GLY123      0.2611
      4  O         61.5270   40.8960   50.7060 O.2   123  GLY123     -0.2717
      5  N         62.9420   40.3310   52.3820 N.am  124  ILE124     -0.1979
      6  CA        62.6840   38.8880   52.2890 C.3   124  ILE124      0.1595
      7  C         62.2270   38.2960   53.6250 C.2   124  ILE124      0.2287
      8  O         61.4240   37.3650   53.6500 O.2   124  ILE124     -0.2864
      9  CB        63.9180   38.0930   51.7820 C.3   124  ILE124      0.0276
     10  CG1       64.5540   38.7610   50.5600 C.3   124  ILE124      0.0022
     11  CG2       63.5170   36.6750   51.4170 C.3   124  ILE124      0.0022
     12  CD1       65.9350   38.2170   50.1900 C.3   124  ILE124      0.0001
     13  N         61.4550   44.9510   47.1690 N.3   178  ALA178     -0.1231
     14  CA        62.7200   44.2740   46.8880 C.3   178  ALA178      0.1694
     15  C         63.9100   45.1130   47.3600 C.2   178  ALA178      0.2592
     16  O         63.9590   45.5240   48.5220 O.2   178  ALA178     -0.2718
     17  CB        62.8250   43.9130   45.3840 C.3   178  ALA178      0.0304
     18  N         64.8510   45.3890   46.4620 N.am  179  CYS179     -0.1970
     19  CA        66.0550   46.1450   46.8190 C.3   179  CYS179      0.1712
     20  C         65.8530   47.6660   46.9010 C.2   179  CYS179      0.2296
     21  O         66.8000   48.4100   47.1620 O.2   179  CYS179     -0.2864
     22  CB        67.2070   45.7720   45.8870 C.3   179  CYS179      0.0983
     23  SG        67.6400   44.0130   46.0100 S.3   179  CYS179     -0.0798
     24  N         67.6530   43.9250   56.6220 N.3   207  GLU207     -0.1245
     25  CA        67.7820   42.6260   55.9750 C.3   207  GLU207      0.1567
     26  C         68.8170   41.7530   56.6680 C.2   207  GLU207      0.2260
     27  O         69.8710   42.2260   57.0840 O.2   207  GLU207     -0.2867
     28  CB        68.1440   42.7830   54.4970 C.3   207  GLU207      0.0388
     29  CG        67.7590   41.5790   53.6430 C.3   207  GLU207      0.1160
     30  CD        66.3020   41.6010   53.2350 C.2   207  GLU207      0.3649
     31  OE1       65.9260   42.4860   52.4360 O.co2 207  GLU207     -0.2457
     32  OE2       65.5320   40.7380   53.7100 O.co2 207  GLU207     -0.2457
     33  N         69.9880   33.1660   44.8160 N.3   218  PHE218     -0.1241
     34  CA        70.6210   34.2610   44.0740 C.3   218  PHE218      0.1605
     35  C         71.7420   33.7870   43.1400 C.2   218  PHE218      0.2264
     36  O         71.9010   34.3310   42.0440 O.2   218  PHE218     -0.2867
     37  CB        71.1310   35.3450   45.0260 C.3   218  PHE218      0.0534
     38  CG        70.0760   36.3250   45.4620 C.ar  218  PHE218     -0.0203
     39  CD1       69.4720   37.1800   44.5420 C.ar  218  PHE218     -0.0042
     40  CD2       69.7010   36.4110   46.7990 C.ar  218  PHE218     -0.0042
     41  CE1       68.5010   38.0910   44.9450 C.ar  218  PHE218     -0.0003
     42  CE2       68.7300   37.3210   47.2130 C.ar  218  PHE218     -0.0003
     43  CZ        68.1310   38.1620   46.2830 C.ar  218  PHE218     -0.0000
     44  N         76.5220   41.0210   42.1850 N.3   246  PHE246     -0.1241
     45  CA        76.6050   41.6390   43.5120 C.3   246  PHE246      0.1605
     46  C         77.0280   40.6890   44.6250 C.2   246  PHE246      0.2264
     47  O         77.0810   39.4720   44.4330 O.2   246  PHE246     -0.2867
     48  CB        75.3390   42.4500   43.8730 C.3   246  PHE246      0.0534
     49  CG        74.0970   41.6260   44.1170 C.ar  246  PHE246     -0.0203
     50  CD1       73.8510   41.0540   45.3630 C.ar  246  PHE246     -0.0042
     51  CD2       73.1390   41.4800   43.1160 C.ar  246  PHE246     -0.0042
     52  CE1       72.6880   40.3220   45.5980 C.ar  246  PHE246     -0.0003
     53  CE2       71.9750   40.7460   43.3390 C.ar  246  PHE246     -0.0003
     54  CZ        71.7500   40.1640   44.5850 C.ar  246  PHE246     -0.0000
     55  N         75.7280   44.4040   48.8440 N.3   359  HIS359     -0.1241
     56  CA        74.3300   44.7130   48.5570 C.3   359  HIS359      0.1621
     57  C         73.4650   44.3410   49.7620 C.2   359  HIS359      0.2264
     58  O         73.2120   43.1570   50.0130 O.2   359  HIS359     -0.2867
     59  CB        73.8690   43.9440   47.3150 C.3   359  HIS359      0.0745
     60  CG        72.6100   44.4730   46.7000 C.ar  359  HIS359      0.0817
     61  ND1       71.7250   45.2850   47.3790 N.ar  359  HIS359     -0.2268
     62  CD2       72.0710   44.2750   45.4740 C.ar  359  HIS359      0.1154
     63  CE1       70.7090   45.5840   46.5900 C.ar  359  HIS359      0.1986
     64  NE2       70.8930   44.9800   45.4290 N.ar  359  HIS359     -0.2212
     65  N         70.3970   44.7170   50.1830 N.3   361  LEU361     -0.1245
     66  CA        69.0480   44.3340   49.7570 C.3   361  LEU361      0.1561
     67  C         67.9740   45.2880   50.3070 C.2   361  LEU361      0.2260
     68  O         67.9690   46.4690   49.9600 O.2   361  LEU361     -0.2867
     69  CB        68.7690   42.8580   50.1020 C.3   361  LEU361      0.0270
     70  CG        69.8150   41.8380   49.6170 C.3   361  LEU361      0.0019
     71  CD1       69.5670   40.4440   50.1980 C.3   361  LEU361      0.0001
     72  CD2       69.8870   41.7860   48.0910 C.3   361  LEU361      0.0001
     73  N         66.9810   50.5710   43.1090 N.3   417  PHE417     -0.1227
     74  CA        66.1800   49.7900   42.1630 C.3   417  PHE417      0.1736
     75  C         66.0020   48.3490   42.6430 C.2   417  PHE417      0.2596
     76  O         66.8990   47.7740   43.2580 O.2   417  PHE417     -0.2718
     77  CB        66.7990   49.8280   40.7610 C.3   417  PHE417      0.0547
     78  CG        67.3280   51.1840   40.3600 C.ar  417  PHE417     -0.0202
     79  CD1       66.5320   52.3270   40.4590 C.ar  417  PHE417     -0.0042
     80  CD2       68.6200   51.3160   39.8680 C.ar  417  PHE417     -0.0042
     81  CE1       67.0220   53.5750   40.0960 C.ar  417  PHE417     -0.0003
     82  CE2       69.1160   52.5640   39.4940 C.ar  417  PHE417     -0.0003
     83  CZ        68.3140   53.6930   39.6110 C.ar  417  PHE417     -0.0000
     84  N         64.8370   47.7730   42.3700 N.am  418  GLY418     -0.1942
     85  CA        64.5390   46.4180   42.8110 C.3   418  GLY418      0.2014
     86  C         63.9490   45.5530   41.7220 C.2   418  GLY418      0.2638
     87  O         63.5210   46.0550   40.6740 O.2   418  GLY418     -0.2714
     88  N         63.9320   44.2450   41.9750 N.am  419  PHE419     -0.1973
     89  CA        63.2880   43.2770   41.0860 C.3   419  PHE419      0.1639
     90  C         61.8330   43.6760   40.8680 C.2   419  PHE419      0.2290
     91  O         61.1840   44.2130   41.7710 O.2   419  PHE419     -0.2864
     92  CB        63.3540   41.8680   41.6910 C.3   419  PHE419      0.0560
     93  CG        64.6970   41.1840   41.5430 C.ar  419  PHE419     -0.0200
     94  CD1       64.8320   39.8360   41.8800 C.ar  419  PHE419     -0.0042
     95  CD2       65.8170   41.8660   41.0620 C.ar  419  PHE419     -0.0042
     96  CE1       66.0630   39.1790   41.7550 C.ar  419  PHE419     -0.0003
     97  CE2       67.0500   41.2180   40.9300 C.ar  419  PHE419     -0.0003
     98  CZ        67.1720   39.8700   41.2760 C.ar  419  PHE419     -0.0000
@<TRIPOS>BOND
     1    82    83   ar
     2    82    80   ar
     3    83    81   ar
     4    80    78   ar
     5    81    79   ar
     6    78    79   ar
     7    78    77    1
     8    87    86    2
     9    77    74    1
    10    90    89    1
    11    90    91    2
    12    97    95   ar
    13    97    98   ar
    14    95    93   ar
    15    89    92    1
    16    89    88    1
    17    98    96   ar
    18    93    92    1
    19    93    94   ar
    20    86    88   am
    21    86    85    1
    22    96    94   ar
    23    36    35    2
    24    74    75    1
    25    74    73    1
    26    44    45    1
    27    84    75   am
    28    84    85    1
    29    75    76    2
    30    51    53   ar
    31    51    49   ar
    32    35    34    1
    33    53    54   ar
    34    45    48    1
    35    45    46    1
    36    48    49    1
    37    34    33    1
    38    34    37    1
    39    49    50   ar
    40    47    46    2
    41    39    41   ar
    42    39    38   ar
    43    54    52   ar
    44    41    43   ar
    45    37    38    1
    46    50    52   ar
    47    17    14    1
    48    64    62   ar
    49    64    63   ar
    50    38    40   ar
    51    62    60   ar
    52    22    23    1
    53    22    19    1
    54    43    42   ar
    55    18    19    1
    56    18    15   am
    57    63    61   ar
    58    60    59    1
    59    60    61   ar
    60    40    42   ar
    61    19    20    1
    62    14    13    1
    63    14    15    1
    64    20    21    2
    65    59    56    1
    66    15    16    2
    67    72    70    1
    68    56    55    1
    69    56    57    1
    70    70    69    1
    71    70    71    1
    72    66    69    1
    73    66    65    1
    74    66    67    1
    75    57    58    2
    76    68    67    2
    77    12    10    1
    78    10     9    1
    79     4     3    2
    80    11     9    1
    81     3     2    1
    82     3     5   am
    83     2     1    1
    84     9     6    1
    85     6     5    1
    86     6     7    1
    87    31    30   ar
    88    30    29    1
    89    30    32   ar
    90     7     8    2
    91    29    28    1
    92    28    25    1
    93    25    24    1
    94    25    26    1
    95    26    27    2
