@<TRIPOS>MOLECULE
tmp/2ix5D01.pdb
 203 193 0 0 0
SMALL
GASTEIGER

@<TRIPOS>ATOM
      1  N         11.3520  -46.3460   17.1450 N.3   122  VAL122     -0.1245
      2  CA        11.2280  -47.7750   16.8520 C.3   122  VAL122      0.1561
      3  C          9.8130  -48.2570   17.2080 C.2   122  VAL122      0.2260
      4  O          9.2030  -49.0600   16.4920 O.2   122  VAL122     -0.2867
      5  CB        12.3280  -48.5920   17.6280 C.3   122  VAL122      0.0252
      6  CG1       12.0170  -50.0780   17.6800 C.3   122  VAL122      0.0019
      7  CG2       13.7130  -48.3690   17.0130 C.3   122  VAL122      0.0019
      8  N          8.0680  -46.9780   13.5300 N.3   126  LEU126     -0.1245
      9  CA         8.3300  -48.2410   12.8340 C.3   126  LEU126      0.1561
     10  C          7.3550  -49.3530   13.2310 C.2   126  LEU126      0.2260
     11  O          6.7600  -49.9900   12.3650 O.2   126  LEU126     -0.2867
     12  CB         9.7830  -48.6950   13.0200 C.3   126  LEU126      0.0270
     13  CG        10.8320  -48.0690   12.0860 C.3   126  LEU126      0.0019
     14  CD1       12.2640  -48.3720   12.5380 C.3   126  LEU126      0.0001
     15  CD2       10.6400  -48.5070   10.6320 C.3   126  LEU126      0.0001
     16  N         10.7630  -53.5880   15.9800 N.3   156  TRP156     -0.1241
     17  CA        10.6800  -53.8070   14.5450 C.3   156  TRP156      0.1605
     18  C         11.9340  -54.5380   14.0570 C.2   156  TRP156      0.2264
     19  O         13.0020  -53.9450   13.9500 O.2   156  TRP156     -0.2867
     20  CB        10.5580  -52.4360   13.8890 C.3   156  TRP156      0.0550
     21  CG         9.9680  -52.3930   12.5350 C.ar  156  TRP156      0.0003
     22  CD1        8.6460  -52.4980   12.2080 C.ar  156  TRP156      0.0946
     23  CD2       10.6700  -52.1690   11.3120 C.ar  156  TRP156      0.0152
     24  NE1        8.4840  -52.3770   10.8480 N.ar  156  TRP156     -0.2442
     25  CE2        9.7100  -52.1700   10.2730 C.ar  156  TRP156      0.0810
     26  CE3       12.0200  -51.9850   10.9880 C.ar  156  TRP156      0.0012
     27  CZ2       10.0590  -51.9920    8.9280 C.ar  156  TRP156      0.0191
     28  CZ3       12.3660  -51.8110    9.6510 C.ar  156  TRP156      0.0001
     29  CH2       11.3860  -51.8170    8.6400 C.ar  156  TRP156      0.0015
     30  N         14.0600  -56.2040   11.3300 N.3   158  LEU158     -0.1231
     31  CA        14.3880  -56.3630    9.9200 C.3   158  LEU158      0.1693
     32  C         15.8280  -56.8440    9.7460 C.2   158  LEU158      0.2592
     33  O         16.0780  -57.8260    9.0420 O.2   158  LEU158     -0.2718
     34  CB        14.1780  -55.0400    9.1750 C.3   158  LEU158      0.0284
     35  CG        14.5100  -54.9410    7.6810 C.3   158  LEU158      0.0019
     36  CD1       13.5460  -55.7700    6.8580 C.3   158  LEU158      0.0001
     37  CD2       14.4800  -53.4830    7.2200 C.3   158  LEU158      0.0001
     38  N         16.7610  -56.1560   10.4020 N.am  159  THR159     -0.1953
     39  CA        18.1940  -56.3930   10.2270 C.3   159  THR159      0.1897
     40  C         18.6230  -57.7780   10.6950 C.2   159  THR159      0.2313
     41  O         18.1080  -58.2930   11.6860 O.2   159  THR159     -0.2863
     42  CB        19.0280  -55.3230   10.9710 C.3   159  THR159      0.1794
     43  OG1       18.7360  -54.0320   10.4330 O.3   159  THR159     -0.2208
     44  CG2       20.5330  -55.5920   10.8320 C.3   159  THR159      0.0378
     45  N         22.0390  -56.2250    6.5820 N.3   164  GLY164     -0.1210
     46  CA        21.7720  -54.9140    7.1480 C.3   164  GLY164      0.1956
     47  C         21.3900  -53.9420    6.0490 C.2   164  GLY164      0.2613
     48  O         20.2170  -53.6130    5.8750 O.2   164  GLY164     -0.2717
     49  N         22.3860  -53.4870    5.2980 N.am  165  SER165     -0.1938
     50  CA        22.1520  -52.6010    4.1840 C.3   165  SER165      0.2055
     51  C         21.4290  -53.3580    3.0970 C.2   165  SER165      0.2643
     52  O         20.6150  -52.7810    2.3860 O.2   165  SER165     -0.2714
     53  CB        23.4680  -52.0440    3.6520 C.3   165  SER165      0.2130
     54  OG        24.0640  -51.1680    4.5910 O.3   165  SER165     -0.2179
     55  N         21.7270  -54.6500    2.9730 N.am  166  ASP166     -0.1957
     56  CA        21.0280  -55.5260    2.0290 C.3   166  ASP166      0.1840
     57  C         19.8240  -56.2420    2.6760 C.2   166  ASP166      0.2622
     58  O         19.8090  -57.4750    2.7920 O.2   166  ASP166     -0.2715
     59  CB        22.0060  -56.5390    1.4160 C.3   166  ASP166      0.1450
     60  CG        21.3730  -57.3670    0.3030 C.2   166  ASP166      0.3671
     61  OD1       20.3910  -56.8940   -0.3160 O.co2 166  ASP166     -0.2456
     62  OD2       21.8530  -58.4940    0.0440 O.co2 166  ASP166     -0.2456
     63  N         18.8150  -55.4660    3.0760 N.am  167  ALA167     -0.1963
     64  CA        17.6530  -55.9920    3.8070 C.3   167  ALA167      0.1728
     65  C         16.7390  -56.8360    2.9400 C.2   167  ALA167      0.2616
     66  O         16.1380  -57.8000    3.4090 O.2   167  ALA167     -0.2715
     67  CB        16.8690  -54.8670    4.4320 C.3   167  ALA167      0.0334
     68  N         16.6400  -56.4650    1.6740 N.am  168  SER168     -0.1950
     69  CA        15.8080  -57.1650    0.7090 C.3   168  SER168      0.1924
     70  C         16.1220  -58.6680    0.6000 C.2   168  SER168      0.2314
     71  O         15.2360  -59.4760    0.2930 O.2   168  SER168     -0.2863
     72  CB        15.9180  -56.4550   -0.6430 C.3   168  SER168      0.2116
     73  OG        16.1760  -57.3520   -1.6980 O.3   168  SER168     -0.2180
     74  N          9.2440  -57.1140   -0.1840 N.3   261  PHE261     -0.1227
     75  CA        10.0570  -56.0650    0.3990 C.3   261  PHE261      0.1736
     76  C          9.5050  -54.6810    0.0670 C.2   261  PHE261      0.2595
     77  O          9.7730  -53.7240    0.7880 O.2   261  PHE261     -0.2718
     78  CB        11.5190  -56.1950   -0.0280 C.3   261  PHE261      0.0547
     79  CG        12.4280  -55.2630    0.6960 C.ar  261  PHE261     -0.0202
     80  CD1       12.7420  -55.4830    2.0360 C.ar  261  PHE261     -0.0042
     81  CD2       12.9450  -54.1380    0.0570 C.ar  261  PHE261     -0.0042
     82  CE1       13.5670  -54.6040    2.7240 C.ar  261  PHE261     -0.0003
     83  CE2       13.7800  -53.2520    0.7390 C.ar  261  PHE261     -0.0003
     84  CZ        14.0900  -53.4860    2.0720 C.ar  261  PHE261     -0.0000
     85  N          8.7180  -54.5860   -1.0050 N.am  262  GLN262     -0.1979
     86  CA         8.1470  -53.3070   -1.4470 C.3   262  GLN262      0.1601
     87  C          7.2640  -52.6440   -0.3940 C.2   262  GLN262      0.2287
     88  O          7.1830  -51.4170   -0.3290 O.2   262  GLN262     -0.2864
     89  CB         7.3600  -53.4740   -2.7460 C.3   262  GLN262      0.0394
     90  CG         8.2270  -53.7450   -3.9670 C.3   262  GLN262      0.0908
     91  CD         7.4180  -54.0190   -5.2330 C.2   262  GLN262      0.2608
     92  OE1        7.9540  -53.9580   -6.3440 O.2   262  GLN262     -0.2717
     93  NE2        6.1300  -54.3310   -5.0720 N.am  262  GLN262     -0.0878
     94  N          9.4980  -51.4360    2.3650 N.3   265  SER265     -0.1217
     95  CA        10.1590  -50.2850    1.7500 C.3   265  SER265      0.1889
     96  C          9.2530  -49.0430    1.7590 C.2   265  SER265      0.2288
     97  O          9.7310  -47.9340    1.9960 O.2   265  SER265     -0.2866
     98  CB        10.5900  -50.6200    0.3220 C.3   265  SER265      0.2089
     99  OG        11.4020  -49.5940   -0.2070 O.3   265  SER265     -0.2183
    100  N          9.5660  -47.7480    5.4400 N.3   268  LEU268     -0.1245
    101  CA        10.8420  -47.0970    5.7150 C.3   268  LEU268      0.1561
    102  C         10.8780  -45.6370    5.2810 C.2   268  LEU268      0.2260
    103  O         11.4830  -44.8100    5.9620 O.2   268  LEU268     -0.2867
    104  CB        11.9940  -47.8590    5.0660 C.3   268  LEU268      0.0270
    105  CG        12.5890  -49.0440    5.8310 C.3   268  LEU268      0.0019
    106  CD1       13.5000  -49.8170    4.9100 C.3   268  LEU268      0.0001
    107  CD2       13.3550  -48.6120    7.0750 C.3   268  LEU268      0.0001
    108  N         11.7470  -42.5960    7.7380 N.3   272  ARG272     -0.1245
    109  CA        12.9840  -41.8410    7.5480 C.3   272  ARG272      0.1563
    110  C         12.7880  -40.3330    7.6990 C.2   272  ARG272      0.2260
    111  O         13.7450  -39.6010    7.9410 O.2   272  ARG272     -0.2867
    112  CB        13.6160  -42.1870    6.1960 C.3   272  ARG272      0.0307
    113  CG        14.3470  -43.5170    6.2110 C.3   272  ARG272      0.0489
    114  CD        14.5910  -44.0540    4.8230 C.3   272  ARG272      0.2205
    115  NE        15.2990  -45.3310    4.8720 N.pl3 272  ARG272     -0.0865
    116  CZ        15.4070  -46.1680    3.8450 C.cat 272  ARG272      0.5346
    117  NH1       14.8420  -45.8650    2.6800 N.pl3 272  ARG272      0.1354
    118  NH2       16.0700  -47.3130    3.9780 N.pl3 272  ARG272      0.1354
    119  N         21.8090  -46.1220   11.2370 N.3   391  TYR391     -0.1227
    120  CA        20.5280  -46.8180   11.1660 C.3   391  TYR391      0.1736
    121  C         19.4880  -46.0950   10.3050 C.2   391  TYR391      0.2595
    122  O         19.6970  -44.9520    9.8860 O.2   391  TYR391     -0.2718
    123  CB        20.0190  -47.2040   12.5660 C.3   391  TYR391      0.0548
    124  CG        19.2300  -46.1790   13.3770 C.ar  391  TYR391     -0.0200
    125  CD1       19.1710  -44.8310   13.0290 C.ar  391  TYR391     -0.0009
    126  CD2       18.5590  -46.5830   14.5380 C.ar  391  TYR391     -0.0009
    127  CE1       18.4330  -43.9160   13.8070 C.ar  391  TYR391      0.0417
    128  CE2       17.8370  -45.6880   15.3130 C.ar  391  TYR391      0.0417
    129  CZ        17.7760  -44.3580   14.9490 C.ar  391  TYR391      0.1957
    130  OH        17.0500  -43.4940   15.7370 O.3   391  TYR391     -0.2866
    131  N         18.3850  -46.7900   10.0300 N.am  392  GLU392     -0.1965
    132  CA        17.3840  -46.3540    9.0550 C.3   392  GLU392      0.1733
    133  C         18.0070  -46.1850    7.6620 C.2   392  GLU392      0.2616
    134  O         17.5870  -45.3320    6.8700 O.2   392  GLU392     -0.2715
    135  CB        16.7030  -45.0710    9.5160 C.3   392  GLU392      0.0429
    136  CG        15.2640  -44.9640    9.0710 C.3   392  GLU392      0.1163
    137  CD        14.3260  -45.7980    9.9220 C.2   392  GLU392      0.3649
    138  OE1       14.6900  -46.1050   11.0810 O.co2 392  GLU392     -0.2457
    139  OE2       13.2290  -46.1360    9.4310 O.co2 392  GLU392     -0.2457
    140  N         19.0020  -47.0200    7.3690 N.am  393  GLY393     -0.1955
    141  CA        19.7800  -46.9060    6.1440 C.3   393  GLY393      0.1869
    142  C         20.9690  -46.0010    6.3900 C.2   393  GLY393      0.2309
    143  O         20.8200  -44.8900    6.9140 O.2   393  GLY393     -0.2863
    144  N         23.6740  -45.7260    1.7340 N.3   397  ILE397     -0.1245
    145  CA        22.4860  -46.3890    1.2160 C.3   397  ILE397      0.1561
    146  C         21.4210  -45.3490    0.8500 C.2   397  ILE397      0.2260
    147  O         20.8760  -45.3830   -0.2580 O.2   397  ILE397     -0.2867
    148  CB        21.9380  -47.4470    2.2030 C.3   397  ILE397      0.0252
    149  CG1       22.9210  -48.6290    2.3490 C.3   397  ILE397      0.0019
    150  CG2       20.5340  -47.9010    1.8060 C.3   397  ILE397      0.0019
    151  CD1       23.2620  -49.4110    1.0740 C.3   397  ILE397      0.0001
    152  N         19.6940  -44.3000   -2.7230 N.3   401  VAL401     -0.1245
    153  CA        18.2490  -44.3400   -2.9540 C.3   401  VAL401      0.1561
    154  C         17.8640  -43.0810   -3.7400 C.2   401  VAL401      0.2260
    155  O         17.2620  -43.1890   -4.8090 O.2   401  VAL401     -0.2867
    156  CB        17.4110  -44.5340   -1.6480 C.3   401  VAL401      0.0252
    157  CG1       15.9090  -44.4340   -1.9300 C.3   401  VAL401      0.0019
    158  CG2       17.7120  -45.8850   -1.0100 C.3   401  VAL401      0.0019
    159  N         19.5470  -43.2400   -7.2010 N.3   404  ARG404     -0.1231
    160  CA        18.8690  -44.0710   -8.1910 C.3   404  ARG404      0.1694
    161  C         17.6610  -43.3310   -8.7440 C.2   404  ARG404      0.2591
    162  O         17.3740  -43.4110   -9.9450 O.2   404  ARG404     -0.2718
    163  CB        18.4380  -45.4130   -7.5940 C.3   404  ARG404      0.0321
    164  CG        17.6540  -46.3050   -8.5520 C.3   404  ARG404      0.0489
    165  CD        17.2700  -47.6370   -7.9290 C.3   404  ARG404      0.2205
    166  NE        16.5090  -47.4810   -6.6960 N.pl3 404  ARG404     -0.0865
    167  CZ        16.3660  -48.4350   -5.7770 C.cat 404  ARG404      0.5346
    168  NH1       16.9400  -49.6220   -5.9440 N.pl3 404  ARG404      0.1354
    169  NH2       15.6600  -48.2040   -4.6760 N.pl3 404  ARG404      0.1354
    170  N         16.9710  -42.6000   -7.8680 N.am  405  GLU405     -0.1979
    171  CA        15.7400  -41.9160   -8.2420 C.3   405  GLU405      0.1602
    172  C         15.9610  -40.7190   -9.1740 C.2   405  GLU405      0.2287
    173  O         15.2180  -40.5380  -10.1350 O.2   405  GLU405     -0.2864
    174  CB        14.9440  -41.5080   -7.0010 C.3   405  GLU405      0.0415
    175  CG        13.6520  -40.8030   -7.3420 C.3   405  GLU405      0.1163
    176  CD        12.8430  -40.4340   -6.1270 C.2   405  GLU405      0.3649
    177  OE1       12.5160  -41.3520   -5.3320 O.co2 405  GLU405     -0.2457
    178  OE2       12.5240  -39.2270   -5.9820 O.co2 405  GLU405     -0.2457
    179  N         20.2290  -47.5190  -11.0050 N.3   410  ALA410     -0.1245
    180  CA        20.6350  -48.1230   -9.7300 C.3   410  ALA410      0.1562
    181  C         22.1520  -48.2610   -9.6460 C.2   410  ALA410      0.2260
    182  O         22.8070  -48.6180  -10.6290 O.2   410  ALA410     -0.2867
    183  CB        19.9860  -49.4750   -9.5570 C.3   410  ALA410      0.0290
    184  N         23.7400  -49.7560   -6.5060 N.3   412  PHE412     -0.1227
    185  CA        24.0040  -50.4910   -5.2650 C.3   412  PHE412      0.1736
    186  C         24.9420  -51.6720   -5.4880 C.2   412  PHE412      0.2595
    187  O         25.9060  -51.8410   -4.7510 O.2   412  PHE412     -0.2718
    188  CB        22.7060  -51.0030   -4.6300 C.3   412  PHE412      0.0547
    189  CG        21.7880  -49.9220   -4.1450 C.ar  412  PHE412     -0.0202
    190  CD1       20.7760  -49.4350   -4.9610 C.ar  412  PHE412     -0.0042
    191  CD2       21.9190  -49.4090   -2.8630 C.ar  412  PHE412     -0.0042
    192  CE1       19.9150  -48.4490   -4.5150 C.ar  412  PHE412     -0.0003
    193  CE2       21.0710  -48.4120   -2.4080 C.ar  412  PHE412     -0.0003
    194  CZ        20.0650  -47.9290   -3.2330 C.ar  412  PHE412     -0.0000
    195  N         24.6510  -52.4830   -6.5030 N.am  413  LYS413     -0.1980
    196  CA        25.3900  -53.7290   -6.7570 C.3   413  LYS413      0.1596
    197  C         26.8220  -53.4480   -7.2060 C.2   413  LYS413      0.2287
    198  O         27.0860  -52.3990   -7.7990 O.2   413  LYS413     -0.2864
    199  CB        24.6630  -54.6020   -7.7900 C.3   413  LYS413      0.0298
    200  CG        23.2370  -55.0290   -7.3580 C.3   413  LYS413      0.0038
    201  CD        23.2390  -56.0520   -6.2180 C.3   413  LYS413      0.0206
    202  CE        22.7550  -55.4790   -4.8780 C.3   413  LYS413      0.1093
    203  NZ        22.8060  -56.5280   -3.7780 N.3   413  LYS413     -0.1314
@<TRIPOS>BOND
     1   179   180    1
     2   182   181    2
     3   173   172    2
     4   162   161    2
     5   180   181    1
     6   180   183    1
     7   172   171    1
     8   161   160    1
     9   161   170   am
    10   164   165    1
    11   164   163    1
    12   171   170    1
    13   171   174    1
    14   160   163    1
    15   160   159    1
    16   165   166    1
    17   198   197    2
    18   199   200    1
    19   199   196    1
    20   200   201    1
    21   175   174    1
    22   175   176    1
    23   197   196    1
    24   196   195    1
    25   166   167    2
    26   184   185    1
    27   195   186   am
    28    92    91    2
    29   201   202    1
    30   176   178   ar
    31   176   177   ar
    32   168   167    1
    33   167   169    1
    34   186   185    1
    35   186   187    2
    36   185   188    1
    37    91    93   am
    38    91    90    1
    39   190   192   ar
    40   190   189   ar
    41   202   203    1
    42   155   154    2
    43   188   189    1
    44   192   194   ar
    45   189   191   ar
    46    90    89    1
    47   154   153    1
    48   194   193   ar
    49   153   152    1
    50   153   156    1
    51   191   193   ar
    52    89    86    1
    53   157   156    1
    54    73    72    1
    55   156   158    1
    56    86    85    1
    57    86    87    1
    58    85    76   am
    59    72    69    1
    60    87    88    2
    61    61    60   ar
    62   147   146    2
    63    99    98    1
    64    74    75    1
    65    78    75    1
    66    78    79    1
    67    62    60   ar
    68    81    79   ar
    69    81    83   ar
    70    76    75    1
    71    76    77    2
    72    71    70    2
    73    60    59    1
    74    98    95    1
    75    70    69    1
    76    79    80   ar
    77    69    68    1
    78    83    84   ar
    79   146   145    1
    80   151   149    1
    81   145   144    1
    82   145   148    1
    83    59    56    1
    84    68    65   am
    85    95    96    1
    86    95    94    1
    87    96    97    2
    88   150   148    1
    89    56    57    1
    90    56    55    1
    91    80    82   ar
    92    84    82   ar
    93   148   149    1
    94    52    51    2
    95    57    58    2
    96    57    63   am
    97   117   116    1
    98    65    66    2
    99    65    64    1
   100    55    51   am
   101    63    64    1
   102    51    50    1
   103    53    50    1
   104    53    54    1
   105    64    67    1
   106   116   118    1
   107   116   115    2
   108    50    49    1
   109   114   115    1
   110   114   113    1
   111   106   105    1
   112   104   101    1
   113   104   105    1
   114   102   101    1
   115   102   103    2
   116    49    47   am
   117   100   101    1
   118   105   107    1
   119    48    47    2
   120    47    46    1
   121   141   142    1
   122   141   140    1
   123   112   113    1
   124   112   109    1
   125   142   143    2
   126    45    46    1
   127    36    35    1
   128   134   133    2
   129    37    35    1
   130   140   133   am
   131   109   110    1
   132   109   108    1
   133   133   132    1
   134    35    34    1
   135   110   111    2
   136    29    27   ar
   137    29    28   ar
   138    27    25   ar
   139    33    32    2
   140   132   135    1
   141   132   131    1
   142   136   135    1
   143   136   137    1
   144    34    31    1
   145   139   137   ar
   146    28    26   ar
   147    32    31    1
   148    32    38   am
   149   122   121    2
   150    31    30    1
   151   137   138   ar
   152   131   121   am
   153    39    38    1
   154    39    40    1
   155    39    42    1
   156    25    24   ar
   157    25    23   ar
   158   121   120    1
   159    43    42    1
   160    15    13    1
   161    40    41    2
   162    44    42    1
   163    24    22   ar
   164    26    23   ar
   165   120   119    1
   166   120   123    1
   167    23    21   ar
   168    13    14    1
   169    13    12    1
   170    22    21   ar
   171    11    10    2
   172    21    20    1
   173   123   124    1
   174     9    12    1
   175     9    10    1
   176     9     8    1
   177   125   124   ar
   178   125   127   ar
   179   124   126   ar
   180   127   129   ar
   181    20    17    1
   182    19    18    2
   183    18    17    1
   184   126   128   ar
   185    17    16    1
   186   129   128   ar
   187   129   130    1
   188     4     3    2
   189     2     1    1
   190     2     3    1
   191     2     5    1
   192     7     5    1
   193     5     6    1
