@<TRIPOS>MOLECULE
tmp/2ix6F00.pdb
 156 151 0 0 0
SMALL
GASTEIGER

@<TRIPOS>ATOM
      1  N         86.5000   19.2240   17.3670 N.3    16  PHE16      -0.1241
      2  CA        85.5110   19.2660   16.2900 C.3    16  PHE16       0.1605
      3  C         84.4730   18.1590   16.4890 C.2    16  PHE16       0.2264
      4  O         84.6100   17.0670   15.9320 O.2    16  PHE16      -0.2867
      5  CB        86.1950   19.1380   14.9250 C.3    16  PHE16       0.0534
      6  CG        85.3570   19.6180   13.7750 C.ar   16  PHE16      -0.0203
      7  CD1       85.4290   20.9390   13.3520 C.ar   16  PHE16      -0.0042
      8  CD2       84.5050   18.7480   13.1040 C.ar   16  PHE16      -0.0042
      9  CE1       84.6600   21.3890   12.2850 C.ar   16  PHE16      -0.0003
     10  CE2       83.7310   19.1910   12.0370 C.ar   16  PHE16      -0.0003
     11  CZ        83.8090   20.5110   11.6270 C.ar   16  PHE16      -0.0000
     12  N         80.6180   12.9530    6.0790 N.3   293  TYR293     -0.1241
     13  CA        81.0060   14.2920    6.5210 C.3   293  TYR293      0.1605
     14  C         79.9900   15.3580    6.1180 C.2   293  TYR293      0.2264
     15  O         79.6180   16.1950    6.9400 O.2   293  TYR293     -0.2867
     16  CB        82.4030   14.6650    6.0080 C.3   293  TYR293      0.0534
     17  CG        82.9830   15.9030    6.6630 C.ar  293  TYR293     -0.0201
     18  CD1       83.8510   15.7990    7.7480 C.ar  293  TYR293     -0.0009
     19  CD2       82.6600   17.1800    6.1990 C.ar  293  TYR293     -0.0009
     20  CE1       84.3830   16.9340    8.3530 C.ar  293  TYR293      0.0417
     21  CE2       83.1840   18.3180    6.7980 C.ar  293  TYR293      0.0417
     22  CZ        84.0430   18.1880    7.8730 C.ar  293  TYR293      0.1957
     23  OH        84.5640   19.3140    8.4640 O.3   293  TYR293     -0.2866
     24  N         78.3970   17.3420    9.2230 N.3   297  ARG297     -0.1245
     25  CA        78.7700   18.7440    9.3820 C.3   297  ARG297      0.1563
     26  C         77.6080   19.6410    8.9780 C.2   297  ARG297      0.2260
     27  O         77.0820   19.5350    7.8680 O.2   297  ARG297     -0.2867
     28  CB        80.0130   19.0690    8.5450 C.3   297  ARG297      0.0307
     29  CG        80.9220   20.1570    9.1180 C.3   297  ARG297      0.0489
     30  CD        80.3090   21.5520    9.0180 C.3   297  ARG297      0.2205
     31  NE        81.2770   22.6060    9.3150 N.pl3 297  ARG297     -0.0865
     32  CZ        81.5960   23.0220   10.5390 C.cat 297  ARG297      0.5346
     33  NH1       81.0290   22.4730   11.6060 N.pl3 297  ARG297      0.1354
     34  NH2       82.4900   23.9900   10.6980 N.pl3 297  ARG297      0.1354
     35  N         76.0950   23.5970    8.5660 N.3   299  GLN299     -0.1231
     36  CA        76.4470   24.9920    8.3480 C.3   299  GLN299      0.1698
     37  C         75.2570   25.7150    7.7380 C.2   299  GLN299      0.2592
     38  O         74.5610   25.1610    6.8860 O.2   299  GLN299     -0.2718
     39  CB        77.6690   25.1010    7.4330 C.3   299  GLN299      0.0381
     40  CG        78.5030   26.3640    7.6340 C.3   299  GLN299      0.0905
     41  CD        79.2140   26.4140    8.9800 C.2   299  GLN299      0.2608
     42  OE1       79.4570   27.4930    9.5190 O.2   299  GLN299     -0.2717
     43  NE2       79.5470   25.2480    9.5270 N.am  299  GLN299     -0.0878
     44  N         75.0300   26.9500    8.1830 N.am  300  PHE300     -0.1976
     45  CA        73.8600   27.7460    7.7830 C.3   300  PHE300      0.1639
     46  C         72.5400   27.0910    8.2160 C.2   300  PHE300      0.2290
     47  O         71.4890   27.3240    7.6120 O.2   300  PHE300     -0.2864
     48  CB        73.8630   28.0350    6.2700 C.3   300  PHE300      0.0560
     49  CG        74.9730   28.9440    5.8230 C.ar  300  PHE300     -0.0200
     50  CD1       76.1980   28.4220    5.4250 C.ar  300  PHE300     -0.0042
     51  CD2       74.7910   30.3220    5.7920 C.ar  300  PHE300     -0.0042
     52  CE1       77.2270   29.2570    5.0100 C.ar  300  PHE300     -0.0003
     53  CE2       75.8150   31.1660    5.3800 C.ar  300  PHE300     -0.0003
     54  CZ        77.0350   30.6310    4.9860 C.ar  300  PHE300     -0.0000
     55  N         75.7190   19.9570    5.2110 N.3   304  LEU304     -0.1245
     56  CA        76.3850   20.3820    3.9780 C.3   304  LEU304      0.1561
     57  C         75.8030   19.7000    2.7400 C.2   304  LEU304      0.2260
     58  O         75.7580   20.2940    1.6620 O.2   304  LEU304     -0.2867
     59  CB        77.8930   20.1260    4.0560 C.3   304  LEU304      0.0270
     60  CG        78.7150   20.7850    5.1660 C.3   304  LEU304      0.0019
     61  CD1       80.1570   20.3200    5.0860 C.3   304  LEU304      0.0001
     62  CD2       78.6420   22.3020    5.0900 C.3   304  LEU304      0.0001
     63  N         73.0690   21.4250    0.2630 N.3   307  PHE307     -0.1227
     64  CA        73.3550   22.5390   -0.6330 C.3   307  PHE307      0.1736
     65  C         73.6740   22.0590   -2.0420 C.2   307  PHE307      0.2595
     66  O         74.4360   21.1080   -2.2280 O.2   307  PHE307     -0.2718
     67  CB        74.4990   23.3910   -0.0770 C.3   307  PHE307      0.0547
     68  CG        74.2110   23.9860    1.2700 C.ar  307  PHE307     -0.0202
     69  CD1       74.5530   23.3020    2.4330 C.ar  307  PHE307     -0.0042
     70  CD2       73.5900   25.2240    1.3770 C.ar  307  PHE307     -0.0042
     71  CE1       74.2840   23.8430    3.6820 C.ar  307  PHE307     -0.0003
     72  CE2       73.3190   25.7750    2.6200 C.ar  307  PHE307     -0.0003
     73  CZ        73.6660   25.0830    3.7770 C.ar  307  PHE307     -0.0000
     74  N         73.0860   22.7360   -3.0260 N.am  308  GLN308     -0.1965
     75  CA        73.2260   22.3750   -4.4360 C.3   308  GLN308      0.1733
     76  C         74.6730   22.1540   -4.8660 C.2   308  GLN308      0.2616
     77  O         75.0000   21.1030   -5.4200 O.2   308  GLN308     -0.2715
     78  CB        72.5630   23.4240   -5.3270 C.3   308  GLN308      0.0408
     79  CG        71.0470   23.3740   -5.3200 C.3   308  GLN308      0.0908
     80  CD        70.4220   24.3590   -6.2870 C.2   308  GLN308      0.2608
     81  OE1       70.4000   25.5640   -6.0450 O.2   308  GLN308     -0.2717
     82  NE2       69.8910   23.8440   -7.3830 N.am  308  GLN308     -0.0878
     83  N         75.5310   23.1390   -4.6000 N.am  309  LEU309     -0.1963
     84  CA        76.9460   23.0500   -4.9630 C.3   309  LEU309      0.1728
     85  C         77.6270   21.8000   -4.4080 C.2   309  LEU309      0.2616
     86  O         78.3940   21.1520   -5.1150 O.2   309  LEU309     -0.2715
     87  CB        77.7200   24.3020   -4.5350 C.3   309  LEU309      0.0311
     88  CG        77.6930   25.4840   -5.5000 C.3   309  LEU309      0.0022
     89  CD1       76.7870   26.5650   -4.9580 C.3   309  LEU309      0.0001
     90  CD2       79.0910   26.0300   -5.7030 C.3   309  LEU309      0.0001
     91  N         77.3380   21.4670   -3.1520 N.am  310  ASN310     -0.1972
     92  CA        77.9290   20.2960   -2.5110 C.3   310  ASN310      0.1688
     93  C         77.4110   18.9800   -3.0670 C.2   310  ASN310      0.2292
     94  O         78.1540   18.0000   -3.1320 O.2   310  ASN310     -0.2864
     95  CB        77.7250   20.3410   -0.9990 C.3   310  ASN310      0.1181
     96  CG        78.6630   21.3150   -0.3070 C.2   310  ASN310      0.2629
     97  OD1       78.4490   21.6750    0.8500 O.2   310  ASN310     -0.2716
     98  ND2       79.7110   21.7420   -1.0080 N.am  310  ASN310     -0.0877
     99  N         79.0200   18.2520   -6.5000 N.3   313  LYS313     -0.1245
    100  CA        80.3820   17.7870   -6.2410 C.3   313  LYS313      0.1561
    101  C         80.3680   16.3250   -5.8130 C.2   313  LYS313      0.2260
    102  O         81.1900   15.5350   -6.2730 O.2   313  LYS313     -0.2867
    103  CB        81.0570   18.6360   -5.1540 C.3   313  LYS313      0.0271
    104  CG        81.1930   20.1190   -5.4720 C.3   313  LYS313      0.0035
    105  CD        82.5440   20.4680   -6.0650 C.3   313  LYS313      0.0206
    106  CE        82.6730   21.9720   -6.2680 C.3   313  LYS313      0.1093
    107  NZ        82.4250   22.7330   -5.0090 N.3   313  LYS313     -0.1314
    108  N         88.1970   19.4330   -1.2330 N.3   365  GLU365     -0.1231
    109  CA        87.5870   20.7500   -1.0560 C.3   365  GLU365      0.1699
    110  C         86.2120   20.6900   -0.3830 C.2   365  GLU365      0.2592
    111  O         85.7530   21.6840    0.1840 O.2   365  GLU365     -0.2718
    112  CB        87.5270   21.5280   -2.3810 C.3   365  GLU365      0.0402
    113  CG        86.6040   20.9510   -3.4510 C.3   365  GLU365      0.1161
    114  CD        86.3520   21.9190   -4.5990 C.2   365  GLU365      0.3649
    115  OE1       86.6580   21.5650   -5.7570 O.co2 365  GLU365     -0.2457
    116  OE2       85.8510   23.0370   -4.3480 O.co2 365  GLU365     -0.2457
    117  N         85.5680   19.5260   -0.4400 N.am  366  LEU366     -0.1966
    118  CA        84.2630   19.3240    0.1970 C.3   366  LEU366      0.1728
    119  C         84.3070   19.4070    1.7240 C.2   366  LEU366      0.2616
    120  O         83.3490   19.8600    2.3480 O.2   366  LEU366     -0.2715
    121  CB        83.6480   17.9880   -0.2290 C.3   366  LEU366      0.0311
    122  CG        82.8180   17.9550   -1.5130 C.3   366  LEU366      0.0022
    123  CD1       82.4630   16.5250   -1.8650 C.3   366  LEU366      0.0001
    124  CD2       81.5550   18.7940   -1.3840 C.3   366  LEU366      0.0001
    125  N         85.4140   18.9650    2.3160 N.am  367  LEU367     -0.1963
    126  CA        85.5770   18.9840    3.7690 C.3   367  LEU367      0.1728
    127  C         86.1040   20.3230    4.2800 C.2   367  LEU367      0.2617
    128  O         86.1930   20.5440    5.4900 O.2   367  LEU367     -0.2715
    129  CB        86.4800   17.8330    4.2270 C.3   367  LEU367      0.0311
    130  CG        85.8310   16.4810    4.5390 C.3   367  LEU367      0.0022
    131  CD1       85.2610   15.8050    3.2970 C.3   367  LEU367      0.0001
    132  CD2       86.8320   15.5690    5.2230 C.3   367  LEU367      0.0001
    133  N         86.4400   21.2120    3.3480 N.am  368  GLY368     -0.1940
    134  CA        86.9140   22.5490    3.6770 C.3   368  GLY368      0.2014
    135  C         88.1940   22.5380    4.4880 C.2   368  GLY368      0.2639
    136  O         89.2410   22.0960    4.0060 O.2   368  GLY368     -0.2714
    137  N         88.1030   23.0270    5.7230 N.am  369  GLY369     -0.1939
    138  CA        89.2440   23.0730    6.6300 C.3   369  GLY369      0.2014
    139  C         89.7970   21.6910    6.9090 C.2   369  GLY369      0.2638
    140  O         90.9610   21.4110    6.6170 O.2   369  GLY369     -0.2714
    141  N         88.9500   20.8260    7.4610 N.am  370  ASN370     -0.1972
    142  CA        89.3270   19.4500    7.7850 C.3   370  ASN370      0.1688
    143  C         89.6720   18.6230    6.5470 C.2   370  ASN370      0.2292
    144  O         90.0360   17.4470    6.6470 O.2   370  ASN370     -0.2864
    145  CB        88.2160   18.7770    8.5890 C.3   370  ASN370      0.1181
    146  CG        87.7900   19.5940    9.7940 C.2   370  ASN370      0.2629
    147  OD1       86.6010   19.8250   10.0090 O.2   370  ASN370     -0.2716
    148  ND2       88.7610   20.0470   10.5810 N.am  370  ASN370     -0.0877
    149  N         92.2050   19.2890    4.8210 N.3   372  ILE372     -0.1245
    150  CA        93.6650   19.2300    4.8220 C.3   372  ILE372      0.1561
    151  C         94.2060   18.3860    5.9840 C.2   372  ILE372      0.2260
    152  O         95.4170   18.2720    6.1680 O.2   372  ILE372     -0.2867
    153  CB        94.3250   20.6430    4.7880 C.3   372  ILE372      0.0252
    154  CG1       94.1630   21.3730    6.1250 C.3   372  ILE372      0.0019
    155  CG2       93.7810   21.4640    3.6180 C.3   372  ILE372      0.0019
    156  CD1       95.1770   22.4800    6.3490 C.3   372  ILE372      0.0001
@<TRIPOS>BOND
     1    82    80   am
     2    99   100    1
     3    80    81    2
     4    80    79    1
     5   102   101    2
     6   106   105    1
     7   106   107    1
     8   100   101    1
     9   100   103    1
    10   105   104    1
    11   115   114   ar
    12    90    88    1
    13    88    89    1
    14    88    87    1
    15   104   103    1
    16    77    76    2
    17    78    79    1
    18    78    75    1
    19    86    85    2
    20    84    83    1
    21    84    87    1
    22    84    85    1
    23    76    83   am
    24    76    75    1
    25   114   116   ar
    26   114   113    1
    27    75    74    1
    28    85    91   am
    29   113   112    1
    30    91    92    1
    31    94    93    2
    32    93    92    1
    33    74    65   am
    34    92    95    1
    35   112   109    1
    36    66    65    2
    37    65    64    1
    38   123   122    1
    39   122   124    1
    40   122   121    1
    41   108   109    1
    42   109   110    1
    43    98    96   am
    44    95    96    1
    45    64    67    1
    46    64    63    1
    47   117   110   am
    48   117   118    1
    49   110   111    2
    50    96    97    2
    51   121   118    1
    52    67    68    1
    53   118   119    1
    54    68    70   ar
    55    68    69   ar
    56    70    72   ar
    57    58    57    2
    58   119   125   am
    59   119   120    2
    60   125   126    1
    61    69    71   ar
    62    72    73   ar
    63    57    56    1
    64   131   130    1
    65   133   134    1
    66   133   127   am
    67   155   153    1
    68   134   135    1
    69    71    73   ar
    70   126   129    1
    71   126   127    1
    72    56    59    1
    73    56    55    1
    74   136   135    2
    75    59    60    1
    76   129   130    1
    77   127   128    2
    78   135   137   am
    79   130   132    1
    80   153   150    1
    81   153   154    1
    82   149   150    1
    83   150   151    1
    84    54    52   ar
    85    54    53   ar
    86    52    50   ar
    87    61    60    1
    88    62    60    1
    89    53    51   ar
    90    50    49   ar
    91   137   138    1
    92    51    49   ar
    93    49    48    1
    94   151   152    2
    95    16    13    1
    96    16    17    1
    97    12    13    1
    98    14    13    1
    99    14    15    2
   100   154   156    1
   101    19    17   ar
   102    19    21   ar
   103    48    45    1
   104   143   144    2
   105   143   142    1
   106   140   139    2
   107   138   139    1
   108    17    18   ar
   109    21    22   ar
   110    38    37    2
   111   139   141   am
   112    39    40    1
   113    39    36    1
   114   141   142    1
   115    47    46    2
   116    40    41    1
   117    37    44   am
   118    37    36    1
   119    18    20   ar
   120    45    44    1
   121    45    46    1
   122   142   145    1
   123    27    26    2
   124    22    20   ar
   125    22    23    1
   126    36    35    1
   127    28    29    1
   128    28    25    1
   129   145   146    1
   130    26    25    1
   131    41    42    2
   132    41    43   am
   133    30    29    1
   134    30    31    1
   135    24    25    1
   136    31    32    2
   137   146   147    2
   138   146   148   am
   139    32    34    1
   140    32    33    1
   141    11    10   ar
   142    11     9   ar
   143    10     8   ar
   144     9     7   ar
   145     8     6   ar
   146     7     6   ar
   147     6     5    1
   148     5     2    1
   149     4     3    2
   150     2     3    1
   151     2     1    1
