@<TRIPOS>MOLECULE
tmp/2ix6F01.pdb
 219 212 0 0 0
SMALL
GASTEIGER

@<TRIPOS>ATOM
      1  N        100.3200   -0.0740   -1.1470 N.3   118  THR118     -0.1218
      2  CA       101.5470   -0.0710   -1.9450 C.3   118  THR118      0.1862
      3  C        102.5820   -1.0300   -1.3520 C.2   118  THR118      0.2287
      4  O        103.2520   -1.7560   -2.0890 O.2   118  THR118     -0.2866
      5  CB       102.1360    1.3580   -2.0900 C.3   118  THR118      0.1770
      6  OG1      101.1800    2.2060   -2.7370 O.3   118  THR118     -0.2211
      7  CG2      103.4220    1.3500   -2.9160 C.3   118  THR118      0.0375
      8  N        103.8670   -3.9010   -3.9290 N.3   122  VAL122     -0.1245
      9  CA       105.2830   -3.9810   -4.3030 C.3   122  VAL122      0.1561
     10  C        105.8770   -5.3220   -3.8640 C.2   122  VAL122      0.2260
     11  O        106.6650   -5.9300   -4.5920 O.2   122  VAL122     -0.2867
     12  CB       106.1000   -2.7910   -3.7220 C.3   122  VAL122      0.0252
     13  CG1      107.6010   -3.0000   -3.9090 C.3   122  VAL122      0.0019
     14  CG2      105.6680   -1.4820   -4.3710 C.3   122  VAL122      0.0019
     15  N        104.7660   -7.3670   -7.4410 N.3   126  LEU126     -0.1245
     16  CA       106.0410   -7.0910   -8.1040 C.3   126  LEU126      0.1561
     17  C        107.1640   -8.0060   -7.6250 C.2   126  LEU126      0.2260
     18  O        107.8560   -8.6140   -8.4390 O.2   126  LEU126     -0.2867
     19  CB       106.4370   -5.6190   -7.9510 C.3   126  LEU126      0.0270
     20  CG       105.7950   -4.6360   -8.9320 C.3   126  LEU126      0.0019
     21  CD1      106.0240   -3.2070   -8.4780 C.3   126  LEU126      0.0001
     22  CD2      106.3210   -4.8410  -10.3480 C.3   126  LEU126      0.0001
     23  N        111.0900   -4.5480   -5.0990 N.3   156  TRP156     -0.1241
     24  CA       111.3470   -4.5680   -6.5330 C.3   156  TRP156      0.1605
     25  C        112.1930   -3.3600   -6.9240 C.2   156  TRP156      0.2264
     26  O        111.8150   -2.2190   -6.6570 O.2   156  TRP156     -0.2867
     27  CB       110.0160   -4.5470   -7.2810 C.3   156  TRP156      0.0550
     28  CG       110.0280   -5.2450   -8.5980 C.ar  156  TRP156      0.0003
     29  CD1      110.1970   -6.5820   -8.8150 C.ar  156  TRP156      0.0946
     30  CD2      109.8310   -4.6500   -9.8840 C.ar  156  TRP156      0.0152
     31  NE1      110.1290   -6.8560  -10.1590 N.ar  156  TRP156     -0.2442
     32  CE2      109.9030   -5.6880  -10.8390 C.ar  156  TRP156      0.0810
     33  CE3      109.6040   -3.3380  -10.3250 C.ar  156  TRP156      0.0012
     34  CZ2      109.7600   -5.4570  -12.2120 C.ar  156  TRP156      0.0191
     35  CZ3      109.4590   -3.1080  -11.6890 C.ar  156  TRP156      0.0001
     36  CH2      109.5400   -4.1650  -12.6170 C.ar  156  TRP156      0.0015
     37  N        113.8460   -1.7230  -10.0800 N.3   158  LEU158     -0.1231
     38  CA       114.0920   -1.4870  -11.5050 C.3   158  LEU158      0.1693
     39  C        114.5700   -0.0600  -11.7710 C.2   158  LEU158      0.2593
     40  O        115.4890    0.1570  -12.5650 O.2   158  LEU158     -0.2718
     41  CB       112.8330   -1.7890  -12.3340 C.3   158  LEU158      0.0284
     42  CG       112.8570   -1.5330  -13.8500 C.3   158  LEU158      0.0019
     43  CD1      113.7650   -2.5220  -14.5790 C.3   158  LEU158      0.0001
     44  CD2      111.4500   -1.5680  -14.4310 C.3   158  LEU158      0.0001
     45  N        113.9410    0.9000  -11.0950 N.am  159  THR159     -0.1939
     46  CA       114.1770    2.3230  -11.3300 C.3   159  THR159      0.2028
     47  C        115.5330    2.7940  -10.8110 C.2   159  THR159      0.2642
     48  O        116.0350    2.2980   -9.8010 O.2   159  THR159     -0.2714
     49  CB       113.0630    3.1860  -10.6960 C.3   159  THR159      0.1808
     50  OG1      111.7830    2.6610  -11.0680 O.3   159  THR159     -0.2208
     51  CG2      113.1570    4.6350  -11.1620 C.3   159  THR159      0.0379
     52  N        116.1090    3.7570  -11.5250 N.am  160  GLU160     -0.1963
     53  CA       117.3700    4.3850  -11.1530 C.3   160  GLU160      0.1718
     54  C        117.2060    5.9100  -11.1850 C.2   160  GLU160      0.2458
     55  O        116.2410    6.4120  -11.7710 O.2   160  GLU160     -0.2730
     56  CB       118.4800    3.9420  -12.1120 C.3   160  GLU160      0.0428
     57  CG       118.7740    2.4450  -12.0840 C.3   160  GLU160      0.1163
     58  CD       119.9600    2.0520  -12.9470 C.2   160  GLU160      0.3649
     59  OE1      120.0890    0.8490  -13.2520 O.co2 160  GLU160     -0.2457
     60  OE2      120.7650    2.9340  -13.3200 O.co2 160  GLU160     -0.2457
     61  N        118.1290    6.6550  -10.5390 N.am  161  PRO161     -0.2727
     62  CA       118.0900    8.1160  -10.6420 C.3   161  PRO161      0.1402
     63  C        118.2410    8.6020  -12.0850 C.2   161  PRO161      0.2269
     64  O        117.5010    9.4880  -12.5130 O.2   161  PRO161     -0.2865
     65  CB       119.2910    8.5620   -9.8020 C.3   161  PRO161      0.0296
     66  CG       119.5510    7.4260   -8.8750 C.3   161  PRO161      0.0237
     67  CD       119.2280    6.2020   -9.6650 C.3   161  PRO161      0.0939
     68  N        114.4440    6.3720  -15.3150 N.3   164  GLY164     -0.1210
     69  CA       113.1430    6.1730  -14.6820 C.3   164  GLY164      0.1956
     70  C        112.0970    5.6420  -15.6440 C.2   164  GLY164      0.2612
     71  O        111.8020    4.4440  -15.6490 O.2   164  GLY164     -0.2717
     72  N        111.5350    6.5400  -16.4530 N.am  165  SER165     -0.1952
     73  CA       110.5560    6.1750  -17.4790 C.3   165  SER165      0.1924
     74  C        111.2190    5.3990  -18.6120 C.2   165  SER165      0.2314
     75  O        110.6170    4.4870  -19.1830 O.2   165  SER165     -0.2863
     76  CB       109.8530    7.4170  -18.0260 C.3   165  SER165      0.2116
     77  OG       109.1080    8.0660  -17.0110 O.3   165  SER165     -0.2180
     78  N        113.9480    5.0250   -5.2500 N.3   189  TRP189     -0.1227
     79  CA       112.4840    4.9490   -5.0920 C.3   189  TRP189      0.1737
     80  C        111.9230    3.6000   -4.6410 C.2   189  TRP189      0.2595
     81  O        110.7050    3.4440   -4.5240 O.2   189  TRP189     -0.2718
     82  CB       111.7560    5.4200   -6.3570 C.3   189  TRP189      0.0564
     83  CG       111.7200    6.8950   -6.4970 C.ar  189  TRP189      0.0003
     84  CD1      112.3990    7.6500   -7.4070 C.ar  189  TRP189      0.0946
     85  CD2      110.9710    7.8100   -5.6930 C.ar  189  TRP189      0.0152
     86  NE1      112.1180    8.9820   -7.2220 N.ar  189  TRP189     -0.2442
     87  CE2      111.2430    9.1080   -6.1750 C.ar  189  TRP189      0.0810
     88  CE3      110.0940    7.6590   -4.6090 C.ar  189  TRP189      0.0012
     89  CZ2      110.6700   10.2510   -5.6120 C.ar  189  TRP189      0.0191
     90  CZ3      109.5260    8.7950   -4.0500 C.ar  189  TRP189      0.0001
     91  CH2      109.8140   10.0740   -4.5550 C.ar  189  TRP189      0.0015
     92  N        112.8030    2.6430   -4.3670 N.am  190  ILE190     -0.1966
     93  CA       112.3800    1.2770   -4.0590 C.3   190  ILE190      0.1727
     94  C        111.6870    1.1770   -2.6990 C.2   190  ILE190      0.2616
     95  O        112.2920    1.4400   -1.6580 O.2   190  ILE190     -0.2715
     96  CB       113.5570    0.2710   -4.1630 C.3   190  ILE190      0.0290
     97  CG1      114.0970    0.2250   -5.5930 C.3   190  ILE190      0.0022
     98  CG2      113.1160   -1.1290   -3.7640 C.3   190  ILE190      0.0023
     99  CD1      115.0640    1.3260   -5.9420 C.3   190  ILE190      0.0001
    100  N        110.4090    0.8040   -2.7350 N.am  191  GLY191     -0.1955
    101  CA       109.6050    0.6410   -1.5290 C.3   191  GLY191      0.1869
    102  C        109.9760   -0.6140   -0.7690 C.2   191  GLY191      0.2309
    103  O        110.2060   -1.6630   -1.3730 O.2   191  GLY191     -0.2863
    104  N        108.3840   13.0130    1.5690 N.3   231  LYS231     -0.1245
    105  CA       107.3010   12.6590    0.6520 C.3   231  LYS231      0.1561
    106  C        105.9870   13.2530    1.1450 C.2   231  LYS231      0.2260
    107  O        105.7300   13.2880    2.3500 O.2   231  LYS231     -0.2867
    108  CB       107.1580   11.1390    0.5350 C.3   231  LYS231      0.0271
    109  CG       108.3620   10.4150   -0.0560 C.3   231  LYS231      0.0035
    110  CD       108.2600    8.9130    0.1680 C.3   231  LYS231      0.0206
    111  CE       108.4770    8.5550    1.6330 C.3   231  LYS231      0.1093
    112  NZ       108.2270    7.1170    1.8930 N.3   231  LYS231     -0.1314
    113  N        103.0640   12.0600   -0.1810 N.3   233  GLY233     -0.1210
    114  CA       102.1500   10.9220   -0.3000 C.3   233  GLY233      0.1956
    115  C        102.8190    9.5950    0.0110 C.2   233  GLY233      0.2611
    116  O        104.0480    9.4990    0.0090 O.2   233  GLY233     -0.2717
    117  N        102.0030    8.5720    0.2710 N.am  234  LEU234     -0.1979
    118  CA       102.4800    7.2350    0.6510 C.3   234  LEU234      0.1596
    119  C        103.6300    7.3140    1.6620 C.2   234  LEU234      0.2287
    120  O        104.7060    6.7470    1.4510 O.2   234  LEU234     -0.2864
    121  CB       102.8930    6.4240   -0.5880 C.3   234  LEU234      0.0297
    122  CG       101.8760    6.1240   -1.6960 C.3   234  LEU234      0.0022
    123  CD1      102.5660    5.4410   -2.8690 C.3   234  LEU234      0.0001
    124  CD2      100.7200    5.2740   -1.1950 C.3   234  LEU234      0.0001
    125  N        110.3050    4.1150    1.1380 N.3   239  ASN239     -0.1240
    126  CA       111.0170    4.1980   -0.1340 C.3   239  ASN239      0.1653
    127  C        112.4600    4.6250    0.0970 C.2   239  ASN239      0.2266
    128  O        112.7270    5.4800    0.9440 O.2   239  ASN239     -0.2867
    129  CB       110.3180    5.1770   -1.0780 C.3   239  ASN239      0.1155
    130  CG       108.9070    4.7430   -1.4280 C.2   239  ASN239      0.2627
    131  OD1      108.7050    3.7840   -2.1720 O.2   239  ASN239     -0.2716
    132  ND2      107.9220    5.4560   -0.8970 N.am  239  ASN239     -0.0877
    133  N        101.5780   10.1560   -5.9630 N.3   387  PRO387     -0.2116
    134  CA       102.6050    9.2660   -6.5030 C.3   387  PRO387      0.1372
    135  C        102.0220    8.1690   -7.3940 C.2   387  PRO387      0.2244
    136  O        102.6390    7.8130   -8.3960 O.2   387  PRO387     -0.2868
    137  CB       103.2500    8.6610   -5.2500 C.3   387  PRO387      0.0268
    138  CG       102.2600    8.8400   -4.1760 C.3   387  PRO387      0.0207
    139  CD       101.5250   10.0930   -4.4910 C.3   387  PRO387      0.0892
    140  N        101.7590    8.7910  -10.8730 N.3   390  THR390     -0.1203
    141  CA       103.0730    8.7930  -11.5220 C.3   390  THR390      0.1994
    142  C        103.7470    7.4120  -11.5780 C.2   390  THR390      0.2618
    143  O        104.2050    6.9960  -12.6420 O.2   390  THR390     -0.2717
    144  CB       104.0190    9.8490  -10.8760 C.3   390  THR390      0.1784
    145  OG1      103.6980   11.1520  -11.3790 O.3   390  THR390     -0.2211
    146  CG2      105.4820    9.5510  -11.1830 C.3   390  THR390      0.0376
    147  N        103.8130    6.7070  -10.4480 N.am  391  TYR391     -0.1961
    148  CA       104.5480    5.4370  -10.3980 C.3   391  TYR391      0.1771
    149  C        103.7910    4.2870  -11.0660 C.2   391  TYR391      0.2619
    150  O        102.5660    4.3390  -11.2010 O.2   391  TYR391     -0.2715
    151  CB       105.0130    5.0930   -8.9700 C.3   391  TYR391      0.0574
    152  CG       104.0680    4.2600   -8.1260 C.ar  391  TYR391     -0.0198
    153  CD1      104.1750    2.8690   -8.0870 C.ar  391  TYR391     -0.0009
    154  CD2      103.1000    4.8630   -7.3340 C.ar  391  TYR391     -0.0009
    155  CE1      103.3170    2.1040   -7.3000 C.ar  391  TYR391      0.0417
    156  CE2      102.2430    4.1100   -6.5460 C.ar  391  TYR391      0.0417
    157  CZ       102.3520    2.7360   -6.5330 C.ar  391  TYR391      0.1957
    158  OH       101.4960    2.0020   -5.7460 O.3   391  TYR391     -0.2866
    159  N        104.5430    3.2610  -11.4730 N.am  392  GLU392     -0.1963
    160  CA       104.0490    2.1590  -12.3150 C.3   392  GLU392      0.1733
    161  C        103.6280    2.6860  -13.6910 C.2   392  GLU392      0.2617
    162  O        102.5820    2.3150  -14.2360 O.2   392  GLU392     -0.2715
    163  CB       102.9180    1.3730  -11.6260 C.3   392  GLU392      0.0429
    164  CG       102.6140    0.0020  -12.2420 C.3   392  GLU392      0.1163
    165  CD       103.7650   -0.9860  -12.1150 C.2   392  GLU392      0.3649
    166  OE1      104.4800   -0.9590  -11.0880 O.co2 392  GLU392     -0.2457
    167  OE2      103.9480   -1.7970  -13.0490 O.co2 392  GLU392     -0.2457
    168  N        104.4660    3.5590  -14.2420 N.am  393  GLY393     -0.1940
    169  CA       104.1870    4.2080  -15.5130 C.3   393  GLY393      0.2014
    170  C        103.3900    5.4830  -15.3240 C.2   393  GLY393      0.2639
    171  O        102.2080    5.4440  -14.9650 O.2   393  GLY393     -0.2714
    172  N        104.0480    6.6150  -15.5620 N.am  394  THR394     -0.1950
    173  CA       103.4060    7.9280  -15.4970 C.3   394  THR394      0.1897
    174  C        102.2920    8.0500  -16.5320 C.2   394  THR394      0.2313
    175  O        102.3700    7.4530  -17.6080 O.2   394  THR394     -0.2863
    176  CB       104.4310    9.0860  -15.6490 C.3   394  THR394      0.1794
    177  OG1      103.7640   10.2670  -16.1130 O.3   394  THR394     -0.2208
    178  CG2      105.5400    8.7190  -16.6250 C.3   394  THR394      0.0378
    179  N        101.4410   10.1220  -18.7440 N.3   396  ASP396     -0.1225
    180  CA       101.9020   10.4480  -20.0930 C.3   396  ASP396      0.1805
    181  C        102.5040    9.2430  -20.8190 C.2   396  ASP396      0.2597
    182  O        102.2240    9.0290  -21.9980 O.2   396  ASP396     -0.2718
    183  CB       102.8930   11.6160  -20.0610 C.3   396  ASP396      0.1424
    184  CG       102.3160   12.8580  -19.3930 C.2   396  ASP396      0.3668
    185  OD1      101.0820   13.0620  -19.4480 O.co2 396  ASP396     -0.2456
    186  OD2      103.1010   13.6370  -18.8120 O.co2 396  ASP396     -0.2456
    187  N        103.3150    8.4590  -20.1080 N.am  397  ILE397     -0.1980
    188  CA       103.9060    7.2420  -20.6690 C.3   397  ILE397      0.1595
    189  C        102.8270    6.2210  -21.0380 C.2   397  ILE397      0.2287
    190  O        102.8280    5.7000  -22.1540 O.2   397  ILE397     -0.2864
    191  CB       104.9980    6.6310  -19.7300 C.3   397  ILE397      0.0276
    192  CG1      106.3260    7.3930  -19.8700 C.3   397  ILE397      0.0022
    193  CG2      105.2050    5.1310  -19.9860 C.3   397  ILE397      0.0022
    194  CD1      106.9620    7.3510  -21.2600 C.3   397  ILE397      0.0001
    195  N        100.7770    7.0930  -23.9470 N.3   400  LEU400     -0.1245
    196  CA       101.5990    6.8870  -25.1380 C.3   400  LEU400      0.1561
    197  C        101.7540    5.4110  -25.5100 C.2   400  LEU400      0.2260
    198  O        101.9170    5.0870  -26.6880 O.2   400  LEU400     -0.2867
    199  CB       102.9710    7.5490  -24.9800 C.3   400  LEU400      0.0270
    200  CG       103.0430    9.0700  -25.1500 C.3   400  LEU400      0.0019
    201  CD1      104.3450    9.6040  -24.5800 C.3   400  LEU400      0.0001
    202  CD2      102.8830    9.4830  -26.6090 C.3   400  LEU400      0.0001
    203  N        105.5330    7.0510  -30.5660 N.3   411  SER411     -0.1202
    204  CA       105.8750    8.4500  -30.3270 C.3   411  SER411      0.2020
    205  C        106.4010    8.6810  -28.9080 C.2   411  SER411      0.2618
    206  O        105.8950    9.5320  -28.1740 O.2   411  SER411     -0.2717
    207  CB       104.6730    9.3510  -30.6150 C.3   411  SER411      0.2103
    208  OG       105.0790   10.7010  -30.7600 O.3   411  SER411     -0.2182
    209  N        107.4240    7.9170  -28.5340 N.am  412  PHE412     -0.1975
    210  CA       108.0530    8.0320  -27.2200 C.3   412  PHE412      0.1639
    211  C        109.3140    8.8820  -27.2960 C.2   412  PHE412      0.2290
    212  O        109.4600    9.8600  -26.5600 O.2   412  PHE412     -0.2864
    213  CB       108.4000    6.6450  -26.6710 C.3   412  PHE412      0.0560
    214  CG       107.2440    5.9350  -26.0320 C.ar  412  PHE412     -0.0200
    215  CD1      106.1740    5.4800  -26.7980 C.ar  412  PHE412     -0.0042
    216  CD2      107.2350    5.7010  -24.6630 C.ar  412  PHE412     -0.0042
    217  CE1      105.1080    4.8190  -26.2080 C.ar  412  PHE412     -0.0003
    218  CE2      106.1730    5.0380  -24.0620 C.ar  412  PHE412     -0.0003
    219  CZ       105.1080    4.5970  -24.8370 C.ar  412  PHE412     -0.0000
@<TRIPOS>BOND
     1   208   207    1
     2   207   204    1
     3   203   204    1
     4   204   205    1
     5   205   209   am
     6   205   206    2
     7   209   210    1
     8   211   210    1
     9   211   212    2
    10   210   213    1
    11   215   217   ar
    12   215   214   ar
    13   198   197    2
    14   213   214    1
    15   202   200    1
    16   217   219   ar
    17   214   216   ar
    18   197   196    1
    19   200   199    1
    20   200   201    1
    21   196   199    1
    22   196   195    1
    23   219   218   ar
    24   216   218   ar
    25   190   189    2
    26   182   181    2
    27   194   192    1
    28   189   188    1
    29   181   187   am
    30   181   180    1
    31   188   187    1
    32   188   191    1
    33   180   183    1
    34   180   179    1
    35   183   184    1
    36   193   191    1
    37   192   191    1
    38   185   184   ar
    39   184   186   ar
    40    75    74    2
    41    74    73    1
    42    76    73    1
    43    76    77    1
    44   175   174    2
    45    73    72    1
    46   178   176    1
    47   174   173    1
    48    72    70   am
    49   177   176    1
    50   176   173    1
    51    71    70    2
    52    70    69    1
    53   172   173    1
    54   172   170   am
    55   169   170    1
    56   169   168    1
    57   170   171    2
    58    68    69    1
    59    43    42    1
    60    44    42    1
    61   168   161   am
    62   162   161    2
    63    42    41    1
    64   161   160    1
    65    60    58   ar
    66    59    58   ar
    67   167   165   ar
    68    58    57    1
    69   143   142    2
    70    36    34   ar
    71    36    35   ar
    72    40    39    2
    73    64    63    2
    74    41    38    1
    75   160   163    1
    76   160   159    1
    77   164   165    1
    78   164   163    1
    79    34    32   ar
    80   165   166   ar
    81    56    57    1
    82    56    53    1
    83    63    62    1
    84    39    38    1
    85    39    45   am
    86    55    54    2
    87    35    33   ar
    88   142   141    1
    89   142   147   am
    90    52    53    1
    91    52    47   am
    92   141   144    1
    93   141   140    1
    94    38    37    1
    95   159   149   am
    96   145   144    1
    97    46    45    1
    98    46    47    1
    99    46    49    1
   100   150   149    2
   101    54    53    1
   102    54    61   am
   103   146   144    1
   104    51    49    1
   105    50    49    1
   106   149   148    1
   107    32    31   ar
   108    32    30   ar
   109    47    48    2
   110    62    61    1
   111    62    65    1
   112    61    67    1
   113   147   148    1
   114   148   151    1
   115    22    20    1
   116    33    30   ar
   117    31    29   ar
   118    30    28   ar
   119    65    66    1
   120    67    66    1
   121   151   152    1
   122    20    21    1
   123    20    19    1
   124    29    28   ar
   125    28    27    1
   126    18    17    2
   127   136   135    2
   128   152   153   ar
   129   152   154   ar
   130    16    19    1
   131    16    17    1
   132    16    15    1
   133   153   155   ar
   134    84    86   ar
   135    84    83   ar
   136   135   134    1
   137   154   156   ar
   138   155   157   ar
   139    27    24    1
   140    86    87   ar
   141    25    26    2
   142    25    24    1
   143   156   157   ar
   144   157   158    1
   145    24    23    1
   146   134   133    1
   147   134   137    1
   148    83    82    1
   149    83    85   ar
   150    82    79    1
   151    87    85   ar
   152    87    89   ar
   153   133   139    1
   154    99    97    1
   155    85    88   ar
   156    89    91   ar
   157    97    96    1
   158   137   138    1
   159    78    79    1
   160    79    80    1
   161    80    81    2
   162    80    92   am
   163    88    90   ar
   164    11    10    2
   165    91    90   ar
   166   139   138    1
   167    14    12    1
   168    92    93    1
   169     9     8    1
   170     9    10    1
   171     9    12    1
   172    96    93    1
   173    96    98    1
   174    93    94    1
   175    13    12    1
   176     7     5    1
   177   123   122    1
   178     6     5    1
   179   100    94   am
   180   100   101    1
   181    94    95    2
   182   131   130    2
   183     5     2    1
   184     4     3    2
   185     2     3    1
   186     2     1    1
   187   122   124    1
   188   122   121    1
   189   101   102    1
   190   130   129    1
   191   130   132   am
   192   103   102    2
   193   129   126    1
   194   121   118    1
   195   114   113    1
   196   114   115    1
   197   126   127    1
   198   126   125    1
   199   109   110    1
   200   109   108    1
   201   116   115    2
   202   115   117   am
   203   127   128    2
   204   110   111    1
   205   117   118    1
   206   108   105    1
   207   118   119    1
   208   105   106    1
   209   105   104    1
   210   106   107    2
   211   120   119    2
   212   111   112    1
