@<TRIPOS>MOLECULE
tmp/2ixbA02.pdb
 74 69 0 0 0
SMALL
GASTEIGER

@<TRIPOS>ATOM
      1  N        -11.8150   61.1860   -5.7000 N.3   364  THR364     -0.1218
      2  CA       -10.3800   61.4540   -5.6710 C.3   364  THR364      0.1862
      3  C         -9.6180   60.4080   -6.4960 C.2   364  THR364      0.2287
      4  O         -8.6700   60.7380   -7.2130 O.2   364  THR364     -0.2866
      5  CB        -9.8540   61.4790   -4.2190 C.3   364  THR364      0.1770
      6  OG1      -10.4670   62.5640   -3.5040 O.3   364  THR364     -0.2211
      7  CG2       -8.3540   61.6480   -4.1860 C.3   364  THR364      0.0375
      8  N         -7.6600   61.7020   -9.8860 N.3   368  CYS368     -0.1235
      9  CA        -6.1990   61.5520   -9.9380 C.3   368  CYS368      0.1677
     10  C         -5.7660   60.7860  -11.1900 C.2   368  CYS368      0.2270
     11  O         -4.7320   61.1010  -11.7800 O.2   368  CYS368     -0.2867
     12  CB        -5.6580   60.8680   -8.6750 C.3   368  CYS368      0.0956
     13  SG        -5.6160   61.9200   -7.1960 S.3   368  CYS368     -0.0801
     14  N         -2.0260   62.2980  -11.7260 N.3   373  GLU373     -0.1231
     15  CA        -1.3950   62.7970  -10.5070 C.3   373  GLU373      0.1699
     16  C         -1.3380   61.7600   -9.4090 C.2   373  GLU373      0.2592
     17  O         -2.1590   60.8420   -9.3560 O.2   373  GLU373     -0.2718
     18  CB        -2.1490   64.0150  -10.0080 C.3   373  GLU373      0.0402
     19  CG        -2.0580   65.1730  -10.9860 C.3   373  GLU373      0.1161
     20  CD        -2.8110   66.3780  -10.5250 C.2   373  GLU373      0.3649
     21  OE1       -2.5630   67.4740  -11.0760 O.co2 373  GLU373     -0.2457
     22  OE2       -3.6580   66.2210   -9.6150 O.co2 373  GLU373     -0.2457
     23  N         -0.3520   61.9250   -8.5290 N.am  374  ALA374     -0.1980
     24  CA        -0.1280   61.0150   -7.4140 C.3   374  ALA374      0.1597
     25  C         -1.3190   61.0330   -6.4790 C.2   374  ALA374      0.2287
     26  O         -1.9120   62.0820   -6.2520 O.2   374  ALA374     -0.2864
     27  CB         1.1370   61.4150   -6.6610 C.3   374  ALA374      0.0319
     28  N         -3.1920   60.9110   -2.8300 N.3   376  PRO376     -0.2116
     29  CA        -2.8470   61.5040   -1.5340 C.3   376  PRO376      0.1372
     30  C         -2.6550   60.4640   -0.4340 C.2   376  PRO376      0.2244
     31  O         -1.9380   60.7100    0.5360 O.2   376  PRO376     -0.2868
     32  CB        -4.0480   62.3850   -1.2290 C.3   376  PRO376      0.0268
     33  CG        -5.2010   61.7110   -1.9250 C.3   376  PRO376      0.0207
     34  CD        -4.6290   61.0460   -3.1380 C.3   376  PRO376      0.0892
     35  N         -0.8530   66.0390    0.4430 N.3   419  THR419     -0.1218
     36  CA        -1.7410   66.4570   -0.6480 C.3   419  THR419      0.1862
     37  C         -3.1710   65.9200   -0.4690 C.2   419  THR419      0.2287
     38  O         -3.9530   65.8830   -1.4240 O.2   419  THR419     -0.2866
     39  CB        -1.1760   66.0340   -2.0350 C.3   419  THR419      0.1770
     40  OG1       -1.0080   64.6110   -2.0790 O.3   419  THR419     -0.2211
     41  CG2        0.1720   66.7200   -2.3150 C.3   419  THR419      0.0375
     42  N         -6.8780   66.2700    0.4220 N.3   421  ALA421     -0.1231
     43  CA        -7.9230   67.2700    0.5560 C.3   421  ALA421      0.1694
     44  C         -7.3610   68.6850    0.7550 C.2   421  ALA421      0.2592
     45  O         -7.7620   69.3970    1.6770 O.2   421  ALA421     -0.2718
     46  CB        -8.8510   66.8900    1.6990 C.3   421  ALA421      0.0304
     47  N         -6.4170   69.0630   -0.1050 N.am  422  ILE422     -0.1966
     48  CA        -5.8220   70.3990   -0.0870 C.3   422  ILE422      0.1727
     49  C         -6.4800   71.3100   -1.1270 C.2   422  ILE422      0.2616
     50  O         -6.0390   72.4450   -1.3360 O.2   422  ILE422     -0.2715
     51  CB        -4.2620   70.3920   -0.2900 C.3   422  ILE422      0.0290
     52  CG1       -3.8520   69.7220   -1.6130 C.3   422  ILE422      0.0022
     53  CG2       -3.5670   69.7380    0.8950 C.3   422  ILE422      0.0023
     54  CD1       -2.4360   70.0850   -2.0770 C.3   422  ILE422      0.0001
     55  N         -7.5230   70.8150   -1.7880 N.am  423  ASN423     -0.1972
     56  CA        -8.3720   71.6610   -2.6230 C.3   423  ASN423      0.1688
     57  C         -9.8470   71.2800   -2.4580 C.2   423  ASN423      0.2292
     58  O        -10.1740   70.3390   -1.7240 O.2   423  ASN423     -0.2864
     59  CB        -7.9170   71.6220   -4.0870 C.3   423  ASN423      0.1181
     60  CG        -8.0800   70.2620   -4.7150 C.2   423  ASN423      0.2629
     61  OD1       -9.1890   69.8640   -5.0710 O.2   423  ASN423     -0.2716
     62  ND2       -6.9690   69.5420   -4.8770 N.am  423  ASN423     -0.0877
     63  N        -10.9020   67.5240   -5.1590 N.3   426  TYR426     -0.1241
     64  CA       -10.4590   66.1220   -5.0800 C.3   426  TYR426      0.1605
     65  C         -9.2350   65.9570   -4.1780 C.2   426  TYR426      0.2264
     66  O         -8.5750   66.9390   -3.8240 O.2   426  TYR426     -0.2867
     67  CB       -10.1780   65.5460   -6.4910 C.3   426  TYR426      0.0534
     68  CG        -8.9360   66.1220   -7.1550 C.ar  426  TYR426     -0.0201
     69  CD1       -7.7730   65.3670   -7.2840 C.ar  426  TYR426     -0.0009
     70  CD2       -8.9220   67.4270   -7.6370 C.ar  426  TYR426     -0.0009
     71  CE1       -6.6310   65.8990   -7.8830 C.ar  426  TYR426      0.0417
     72  CE2       -7.7820   67.9630   -8.2190 C.ar  426  TYR426      0.0417
     73  CZ        -6.6400   67.1920   -8.3380 C.ar  426  TYR426      0.1957
     74  OH        -5.5150   67.7260   -8.9250 O.3   426  TYR426     -0.2866
@<TRIPOS>BOND
     1    11    10    2
     2    14    15    1
     3    10     9    1
     4    21    20   ar
     5    19    20    1
     6    19    18    1
     7    20    22   ar
     8    15    18    1
     9    15    16    1
    10     9     8    1
    11     9    12    1
    12    16    17    2
    13    16    23   am
    14    74    73    1
    15    12    13    1
    16    23    24    1
    17    73    72   ar
    18    73    71   ar
    19    72    70   ar
    20    71    69   ar
    21    70    68   ar
    22    24    27    1
    23    24    25    1
    24    69    68   ar
    25     4     3    2
    26    68    67    1
    27     3     2    1
    28    67    64    1
    29    25    26    2
    30     1     2    1
    31     2     5    1
    32    63    64    1
    33    64    65    1
    34    61    60    2
    35    62    60   am
    36    60    59    1
    37     5     7    1
    38     5     6    1
    39    65    66    2
    40    59    56    1
    41    34    28    1
    42    34    33    1
    43    28    29    1
    44    56    57    1
    45    56    55    1
    46    57    58    2
    47    41    39    1
    48    40    39    1
    49    54    52    1
    50    39    36    1
    51    33    32    1
    52    55    49   am
    53    52    51    1
    54    29    32    1
    55    29    30    1
    56    38    37    2
    57    50    49    2
    58    49    48    1
    59    36    37    1
    60    36    35    1
    61    30    31    2
    62    51    48    1
    63    51    53    1
    64    47    48    1
    65    47    44   am
    66    42    43    1
    67    43    44    1
    68    43    46    1
    69    44    45    2
