@<TRIPOS>MOLECULE
tmp/2ixbA01.pdb
 121 114 0 0 0
SMALL
GASTEIGER

@<TRIPOS>ATOM
      1  N         -9.4120   48.5510    2.3170 N.3   104  VAL104     -0.1245
      2  CA        -8.6860   48.5530    3.5800 C.3   104  VAL104      0.1561
      3  C         -8.7580   47.2010    4.2870 C.2   104  VAL104      0.2260
      4  O         -9.6390   46.3790    4.0210 O.2   104  VAL104     -0.2867
      5  CB        -9.2100   49.6630    4.5170 C.3   104  VAL104      0.0252
      6  CG1       -9.0080   51.0420    3.8550 C.3   104  VAL104      0.0019
      7  CG2      -10.6820   49.4120    4.9040 C.3   104  VAL104      0.0019
      8  N        -11.9900   55.4850    3.5300 N.3   132  ASN132     -0.1225
      9  CA       -13.1390   56.3810    3.3890 C.3   132  ASN132      0.1785
     10  C        -13.4080   57.2600    4.5970 C.2   132  ASN132      0.2597
     11  O        -14.0040   58.3200    4.4460 O.2   132  ASN132     -0.2718
     12  CB       -14.4200   55.6060    2.9970 C.3   132  ASN132      0.1169
     13  CG       -14.6710   54.3760    3.8680 C.2   132  ASN132      0.2627
     14  OD1      -13.7290   53.7840    4.4140 O.2   132  ASN132     -0.2716
     15  ND2      -15.9480   53.9800    3.9930 N.am  132  ASN132     -0.0877
     16  N        -12.9790   56.8340    5.7910 N.am  133  VAL133     -0.1980
     17  CA       -13.2230   57.6080    7.0060 C.3   133  VAL133      0.1595
     18  C        -12.4030   58.9010    7.0020 C.2   133  VAL133      0.2287
     19  O        -12.7550   59.8540    7.6870 O.2   133  VAL133     -0.2864
     20  CB       -12.9880   56.7730    8.2900 C.3   133  VAL133      0.0276
     21  CG1      -13.1040   57.6310    9.5710 C.3   133  VAL133      0.0022
     22  CG2      -13.9930   55.6370    8.3450 C.3   133  VAL133      0.0022
     23  N        -11.1970   50.9940   15.2710 N.3   161  TYR161     -0.1241
     24  CA       -12.3690   50.3780   14.6890 C.3   161  TYR161      0.1605
     25  C        -13.1510   49.7570   15.8490 C.2   161  TYR161      0.2264
     26  O        -12.7890   48.6900   16.3600 O.2   161  TYR161     -0.2867
     27  CB       -12.0020   49.3750   13.5910 C.3   161  TYR161      0.0534
     28  CG       -13.2060   48.8500   12.8650 C.ar  161  TYR161     -0.0201
     29  CD1      -14.0740   49.7170   12.2170 C.ar  161  TYR161     -0.0009
     30  CD2      -13.5020   47.4880   12.8500 C.ar  161  TYR161     -0.0009
     31  CE1      -15.2010   49.2500   11.5670 C.ar  161  TYR161      0.0417
     32  CE2      -14.6200   47.0090   12.1960 C.ar  161  TYR161      0.0417
     33  CZ       -15.4640   47.8960   11.5570 C.ar  161  TYR161      0.1957
     34  OH       -16.5880   47.4360   10.9160 O.3   161  TYR161     -0.2866
     35  N        -16.7960   48.6840   16.3170 N.3   163  HIS163     -0.1241
     36  CA       -18.0190   48.4070   15.5730 C.3   163  HIS163      0.1621
     37  C        -18.3890   46.9580   15.8160 C.2   163  HIS163      0.2264
     38  O        -17.6160   46.0630   15.4790 O.2   163  HIS163     -0.2867
     39  CB       -17.7810   48.6460   14.0700 C.3   163  HIS163      0.0745
     40  CG       -18.9890   48.4390   13.2060 C.ar  163  HIS163      0.0817
     41  ND1      -18.9130   48.3710   11.8320 N.ar  163  HIS163     -0.2268
     42  CD2      -20.2990   48.2730   13.5170 C.ar  163  HIS163      0.1154
     43  CE1      -20.1230   48.1800   11.3340 C.ar  163  HIS163      0.1986
     44  NE2      -20.9820   48.1110   12.3340 N.ar  163  HIS163     -0.2212
     45  N        -19.4370   43.6410   15.1670 N.3   165  LEU165     -0.1245
     46  CA       -19.4640   42.8120   13.9450 C.3   165  LEU165      0.1561
     47  C        -19.9840   41.3800   14.1630 C.2   165  LEU165      0.2260
     48  O        -19.9050   40.5440   13.2590 O.2   165  LEU165     -0.2867
     49  CB       -18.0750   42.7440   13.3050 C.3   165  LEU165      0.0270
     50  CG       -17.5520   43.9990   12.6210 C.3   165  LEU165      0.0019
     51  CD1      -16.2260   43.6900   11.9580 C.3   165  LEU165      0.0001
     52  CD2      -18.5580   44.5560   11.6170 C.3   165  LEU165      0.0001
     53  N        -22.2740   40.1960   11.5280 N.3   168  VAL168     -0.1245
     54  CA       -21.6290   40.1460   10.2260 C.3   168  VAL168      0.1561
     55  C        -20.6740   38.9490   10.1580 C.2   168  VAL168      0.2260
     56  O        -20.4560   38.3750    9.0880 O.2   168  VAL168     -0.2867
     57  CB       -20.8850   41.4900    9.9520 C.3   168  VAL168      0.0252
     58  CG1      -19.7580   41.3120    8.9410 C.3   168  VAL168      0.0019
     59  CG2      -21.8910   42.5600    9.4920 C.3   168  VAL168      0.0019
     60  N        -19.0370   38.2340    4.5640 N.3   191  GLU191     -0.1245
     61  CA       -17.8470   38.2960    5.4320 C.3   191  GLU191      0.1567
     62  C        -17.7030   37.1480    6.4240 C.2   191  GLU191      0.2260
     63  O        -16.5950   36.8530    6.8530 O.2   191  GLU191     -0.2867
     64  CB       -17.8030   39.6200    6.1970 C.3   191  GLU191      0.0388
     65  CG       -17.5780   40.8350    5.2990 C.3   191  GLU191      0.1160
     66  CD       -17.0850   42.0510    6.0520 C.2   191  GLU191      0.3649
     67  OE1      -16.8570   43.0940    5.4030 O.co2 191  GLU191     -0.2457
     68  OE2      -16.9250   41.9660    7.2850 O.co2 191  GLU191     -0.2457
     69  N        -13.8810   36.2940    7.0950 N.3   195  ARG195     -0.1245
     70  CA       -13.3400   37.1770    8.1340 C.3   195  ARG195      0.1563
     71  C        -13.2320   36.4650    9.4900 C.2   195  ARG195      0.2260
     72  O        -12.2040   36.5690   10.1740 O.2   195  ARG195     -0.2867
     73  CB       -14.1410   38.4860    8.2740 C.3   195  ARG195      0.0307
     74  CG       -13.2450   39.6500    8.6920 C.3   195  ARG195      0.0489
     75  CD       -13.8870   40.6610    9.6200 C.3   195  ARG195      0.2205
     76  NE       -14.3920   41.8530    8.9350 N.pl3 195  ARG195     -0.0865
     77  CZ       -14.1270   43.1180    9.2710 C.cat 195  ARG195      0.5346
     78  NH1      -13.3250   43.4330   10.2810 N.pl3 195  ARG195      0.1354
     79  NH2      -14.6810   44.0960    8.5750 N.pl3 195  ARG195      0.1354
     80  N         -7.5430   45.4550   12.0320 N.3   207  TYR207     -0.1241
     81  CA        -8.2340   46.4460   11.1890 C.3   207  TYR207      0.1605
     82  C         -7.9270   47.8990   11.6120 C.2   207  TYR207      0.2264
     83  O         -8.7810   48.5820   12.1630 O.2   207  TYR207     -0.2867
     84  CB        -9.7390   46.1490   11.2530 C.3   207  TYR207      0.0534
     85  CG       -10.5370   46.3640    9.9920 C.ar  207  TYR207     -0.0201
     86  CD1      -10.1760   45.7770    8.7910 C.ar  207  TYR207     -0.0009
     87  CD2      -11.6970   47.1130   10.0230 C.ar  207  TYR207     -0.0009
     88  CE1      -10.9440   45.9600    7.6440 C.ar  207  TYR207      0.0417
     89  CE2      -12.4700   47.3000    8.8950 C.ar  207  TYR207      0.0417
     90  CZ       -12.1040   46.7180    7.7090 C.ar  207  TYR207      0.1957
     91  OH       -12.9060   46.9280    6.6060 O.3   207  TYR207     -0.2866
     92  N         -9.2260   52.5890    9.6970 N.3   210  HIS210     -0.1241
     93  CA       -10.3270   53.5210    9.9870 C.3   210  HIS210      0.1621
     94  C         -9.9860   54.5010   11.1110 C.2   210  HIS210      0.2264
     95  O        -10.4040   55.6540   11.0730 O.2   210  HIS210     -0.2867
     96  CB       -11.6450   52.7770   10.2920 C.3   210  HIS210      0.0745
     97  CG       -12.2800   52.1430    9.0890 C.ar  210  HIS210      0.0817
     98  ND1      -12.2600   52.7270    7.8410 N.ar  210  HIS210     -0.2268
     99  CD2      -12.9590   50.9800    8.9440 C.ar  210  HIS210      0.1154
    100  CE1      -12.8870   51.9470    6.9770 C.ar  210  HIS210      0.1986
    101  NE2      -13.3190   50.8780    7.6200 N.ar  210  HIS210     -0.2212
    102  N        -21.9670   52.0180   17.5720 N.3   289  TYR289     -0.1241
    103  CA       -20.8600   52.3590   16.6950 C.3   289  TYR289      0.1605
    104  C        -20.2460   53.6820   17.1320 C.2   289  TYR289      0.2264
    105  O        -20.9500   54.6860   17.2520 O.2   289  TYR289     -0.2867
    106  CB       -21.3710   52.5020   15.2600 C.3   289  TYR289      0.0534
    107  CG       -20.3130   52.8210   14.2210 C.ar  289  TYR289     -0.0201
    108  CD1      -19.8150   51.8350   13.3890 C.ar  289  TYR289     -0.0009
    109  CD2      -19.8370   54.1170   14.0540 C.ar  289  TYR289     -0.0009
    110  CE1      -18.8660   52.1240   12.4190 C.ar  289  TYR289      0.0417
    111  CE2      -18.8770   54.4160   13.0880 C.ar  289  TYR289      0.0417
    112  CZ       -18.3960   53.4200   12.2740 C.ar  289  TYR289      0.1957
    113  OH       -17.4470   53.7250   11.3140 O.3   289  TYR289     -0.2866
    114  N        -19.2770   59.8520    2.4300 N.3   357  MET357     -0.1245
    115  CA       -17.8270   59.8740    2.3940 C.3   357  MET357      0.1570
    116  C        -17.2520   58.9790    1.2880 C.2   357  MET357      0.2261
    117  O        -16.1480   59.2320    0.8040 O.2   357  MET357     -0.2867
    118  CB       -17.2500   59.4670    3.7600 C.3   357  MET357      0.0387
    119  CG       -17.5490   58.0340    4.2010 C.3   357  MET357      0.0595
    120  SD       -17.0260   57.7000    5.8990 S.3   357  MET357     -0.1393
    121  CE       -18.1330   56.3700    6.3620 C.3   357  MET357      0.0692
@<TRIPOS>BOND
     1   117   116    2
     2   116   115    1
     3     1     2    1
     4   115   114    1
     5   115   118    1
     6    12     9    1
     7    12    13    1
     8     9     8    1
     9     9    10    1
    10     2     3    1
    11     2     5    1
    12   118   119    1
    13     6     5    1
    14    13    15   am
    15    13    14    2
    16     4     3    2
    17   119   120    1
    18    11    10    2
    19     5     7    1
    20    60    61    1
    21    10    16   am
    22    65    66    1
    23    65    64    1
    24    67    66   ar
    25    61    64    1
    26    61    62    1
    27    16    17    1
    28   120   121    1
    29    66    68   ar
    30    62    63    2
    31    91    90    1
    32   100   101   ar
    33   100    98   ar
    34    18    17    1
    35    18    19    2
    36    17    20    1
    37    69    70    1
    38   101    99   ar
    39    88    90   ar
    40    88    86   ar
    41    90    89   ar
    42    98    97   ar
    43    70    73    1
    44    70    71    1
    45    73    74    1
    46    20    22    1
    47    20    21    1
    48    79    77    1
    49    74    75    1
    50    86    85   ar
    51    89    87   ar
    52    76    77    2
    53    76    75    1
    54    58    57    1
    55    99    97   ar
    56    56    55    2
    57    97    96    1
    58    77    78    1
    59    71    72    2
    60    59    57    1
    61    92    93    1
    62    57    54    1
    63    93    96    1
    64    93    94    1
    65    85    87   ar
    66    85    84    1
    67    55    54    1
    68    54    53    1
    69    34    33    1
    70    95    94    2
    71    81    84    1
    72    81    82    1
    73    81    80    1
    74   113   112    1
    75    43    41   ar
    76    43    44   ar
    77    33    31   ar
    78    33    32   ar
    79    31    29   ar
    80    82    83    2
    81    52    50    1
    82    41    40   ar
    83    51    50    1
    84    32    30   ar
    85    29    28   ar
    86   112   110   ar
    87   112   111   ar
    88    44    42   ar
    89   110   108   ar
    90    50    49    1
    91    30    28   ar
    92    28    27    1
    93   111   109   ar
    94    40    42   ar
    95    40    39    1
    96    48    47    2
    97    49    46    1
    98   108   107   ar
    99    27    24    1
   100    46    47    1
   101    46    45    1
   102   109   107   ar
   103    39    36    1
   104   107   106    1
   105    24    23    1
   106    24    25    1
   107   106   103    1
   108    38    37    2
   109    36    37    1
   110    36    35    1
   111    25    26    2
   112   103   104    1
   113   103   102    1
   114   104   105    2
