@<TRIPOS>MOLECULE
tmp/2ixcD01.pdb
 145 137 0 0 0
SMALL
GASTEIGER

@<TRIPOS>ATOM
      1  N         12.5560   24.5210   38.6800 N.3    47  GLN47      -0.1245
      2  CA        13.6140   23.7600   37.9980 C.3    47  GLN47       0.1566
      3  C         14.9610   24.4480   38.2490 C.2    47  GLN47       0.2260
      4  O         15.0210   25.6740   38.3730 O.2    47  GLN47      -0.2867
      5  CB        13.3260   23.6560   36.4830 C.3    47  GLN47       0.0367
      6  CG        14.4350   22.9050   35.6940 C.3    47  GLN47       0.0905
      7  CD        13.9480   22.2150   34.4220 C.2    47  GLN47       0.2608
      8  OE1       14.7570   21.9230   33.5210 O.2    47  GLN47      -0.2717
      9  NE2       12.6610   21.8820   34.3630 N.am   47  GLN47      -0.0878
     10  N         18.9320   24.2550   36.4850 N.3    49  ASN49      -0.1240
     11  CA        19.7410   23.6700   35.4090 C.3    49  ASN49       0.1653
     12  C         21.2130   24.0080   35.5950 C.2    49  ASN49       0.2266
     13  O         21.5650   24.9860   36.2890 O.2    49  ASN49      -0.2867
     14  CB        19.2890   24.1730   34.0380 C.3    49  ASN49       0.1155
     15  CG        17.8970   23.6660   33.6410 C.2    49  ASN49       0.2627
     16  OD1       17.4310   22.6420   34.1260 O.2    49  ASN49      -0.2716
     17  ND2       17.2500   24.3910   32.7350 N.am   49  ASN49      -0.0877
     18  N         25.0860   23.8790   33.2500 N.3    51  SER51      -0.1217
     19  CA        25.8040   23.5890   32.0150 C.3    51  SER51       0.1889
     20  C         27.3020   23.7930   32.2300 C.2    51  SER51       0.2288
     21  O         27.7060   24.5140   33.1450 O.2    51  SER51      -0.2866
     22  CB        25.2950   24.4650   30.8750 C.3    51  SER51       0.2089
     23  OG        25.5770   25.8350   31.0990 O.3    51  SER51      -0.2183
     24  N         25.9880   30.3020   24.1250 N.3    59  ARG59      -0.1245
     25  CA        24.6570   29.7250   24.2780 C.3    59  ARG59       0.1563
     26  C         23.6740   30.8860   24.2710 C.2    59  ARG59       0.2260
     27  O         23.7720   31.7780   25.1000 O.2    59  ARG59      -0.2867
     28  CB        24.5530   28.9540   25.5960 C.3    59  ARG59       0.0307
     29  CG        25.4840   27.7310   25.6950 C.3    59  ARG59       0.0489
     30  CD        25.2460   26.8970   26.9780 C.3    59  ARG59       0.2205
     31  NE        26.2940   25.8840   27.1630 N.pl3  59  ARG59      -0.0865
     32  CZ        26.1020   24.5650   27.1090 C.cat  59  ARG59       0.5346
     33  NH1       24.8850   24.0540   26.8800 N.pl3  59  ARG59       0.1354
     34  NH2       27.1350   23.7510   27.2800 N.pl3  59  ARG59       0.1354
     35  N         18.1550   33.0920   24.0710 N.3    62  HIS62      -0.1241
     36  CA        16.9950   32.2760   24.3970 C.3    62  HIS62       0.1621
     37  C         15.9480   33.0240   25.2190 C.2    62  HIS62       0.2264
     38  O         16.2900   33.8850   26.0360 O.2    62  HIS62      -0.2867
     39  CB        17.4380   31.0220   25.1650 C.3    62  HIS62       0.0745
     40  CG        18.4070   30.1610   24.4110 C.ar   62  HIS62       0.0817
     41  ND1       19.2920   29.3140   25.0410 N.ar   62  HIS62      -0.2268
     42  CD2       18.6380   30.0220   23.0830 C.ar   62  HIS62       0.1154
     43  CE1       20.0170   28.6770   24.1360 C.ar   62  HIS62       0.1986
     44  NE2       19.6470   29.0950   22.9390 N.ar   62  HIS62      -0.2212
     45  N          9.8350   32.1790   31.6410 N.3    70  GLN70      -0.1245
     46  CA        10.7320   31.5310   32.5740 C.3    70  GLN70       0.1566
     47  C         11.7860   32.5060   33.0960 C.2    70  GLN70       0.2260
     48  O         12.7180   32.8790   32.3720 O.2    70  GLN70      -0.2867
     49  CB        11.3760   30.2910   31.9280 C.3    70  GLN70       0.0367
     50  CG        12.2350   29.4440   32.8440 C.3    70  GLN70       0.0905
     51  CD        13.0390   28.3920   32.0740 C.2    70  GLN70       0.2608
     52  OE1       13.8440   28.7290   31.2090 O.2    70  GLN70      -0.2717
     53  NE2       12.8000   27.1190   32.3690 N.am   70  GLN70      -0.0878
     54  N         15.0140   33.5310   35.3360 N.3    72  LYS72      -0.1245
     55  CA        16.2650   32.8060   35.5460 C.3    72  LYS72       0.1561
     56  C         17.1470   33.6020   36.4930 C.2    72  LYS72       0.2260
     57  O         17.3260   34.8180   36.3040 O.2    72  LYS72      -0.2867
     58  CB        17.0110   32.6020   34.2140 C.3    72  LYS72       0.0271
     59  CG        16.2150   31.7680   33.2220 C.3    72  LYS72       0.0035
     60  CD        16.7060   32.0240   31.7910 C.3    72  LYS72       0.0206
     61  CE        15.7530   31.4030   30.8060 C.3    72  LYS72       0.1093
     62  NZ        16.1840   31.6790   29.3860 N.3    72  LYS72      -0.1314
     63  N         18.1930   35.9770   26.8100 N.3   119  HIS119     -0.1226
     64  CA        19.3940   35.7990   27.6080 C.3   119  HIS119      0.1752
     65  C         20.3740   34.8700   26.8800 C.2   119  HIS119      0.2597
     66  O         19.9590   33.9210   26.1940 O.2   119  HIS119     -0.2718
     67  CB        19.0050   35.2020   28.9750 C.3   119  HIS119      0.0759
     68  CG        20.1660   34.7440   29.7930 C.ar  119  HIS119      0.0818
     69  ND1       20.4530   33.4090   29.9940 N.ar  119  HIS119     -0.2268
     70  CD2       21.1320   35.4410   30.4390 C.ar  119  HIS119      0.1154
     71  CE1       21.5360   33.3040   30.7410 C.ar  119  HIS119      0.1986
     72  NE2       21.9720   34.5210   31.0170 N.ar  119  HIS119     -0.2212
     73  N         21.6630   35.1320   27.0580 N.am  120  GLY120     -0.1942
     74  CA        22.6880   34.2460   26.5270 C.3   120  GLY120      0.2014
     75  C         24.0340   34.5850   27.1150 C.2   120  GLY120      0.2638
     76  O         24.2090   35.6400   27.7310 O.2   120  GLY120     -0.2714
     77  N         25.0000   33.7060   26.9260 N.am  121  PHE121     -0.1973
     78  CA        26.3520   34.0100   27.3800 C.3   121  PHE121      0.1639
     79  C         27.4040   33.3740   26.4860 C.2   121  PHE121      0.2290
     80  O         27.1310   32.3980   25.7750 O.2   121  PHE121     -0.2864
     81  CB        26.5450   33.5570   28.8440 C.3   121  PHE121      0.0560
     82  CG        26.4660   32.0550   29.0370 C.ar  121  PHE121     -0.0200
     83  CD1       27.5780   31.2360   28.7980 C.ar  121  PHE121     -0.0042
     84  CD2       25.2830   31.4660   29.4550 C.ar  121  PHE121     -0.0042
     85  CE1       27.4900   29.8400   28.9690 C.ar  121  PHE121     -0.0003
     86  CE2       25.1960   30.0810   29.6320 C.ar  121  PHE121     -0.0003
     87  CZ        26.2960   29.2790   29.4020 C.ar  121  PHE121     -0.0000
     88  N         21.5030   27.8520   37.0450 N.3   132  TYR132     -0.1241
     89  CA        20.4050   28.7920   37.0960 C.3   132  TYR132      0.1605
     90  C         19.1110   28.2200   37.6450 C.2   132  TYR132      0.2264
     91  O         18.7140   27.1080   37.2870 O.2   132  TYR132     -0.2867
     92  CB        20.2370   29.5340   35.7580 C.3   132  TYR132      0.0534
     93  CG        19.9660   28.6750   34.5520 C.ar  132  TYR132     -0.0201
     94  CD1       18.6710   28.5950   34.0300 C.ar  132  TYR132     -0.0009
     95  CD2       20.9920   27.9870   33.8990 C.ar  132  TYR132     -0.0009
     96  CE1       18.3910   27.8290   32.8940 C.ar  132  TYR132      0.0417
     97  CE2       20.7230   27.2070   32.7540 C.ar  132  TYR132      0.0417
     98  CZ        19.4100   27.1420   32.2670 C.ar  132  TYR132      0.1957
     99  OH        19.1000   26.3840   31.1520 O.3   132  TYR132     -0.2866
    100  N         11.1620   22.9960   32.1470 N.3   138  TYR138     -0.1241
    101  CA        11.4960   22.9310   30.7190 C.3   138  TYR138      0.1605
    102  C         10.2480   22.7770   29.8660 C.2   138  TYR138      0.2264
    103  O          9.3780   21.9360   30.1590 O.2   138  TYR138     -0.2867
    104  CB        12.4030   21.7120   30.5210 C.3   138  TYR138      0.0534
    105  CG        12.9310   21.4560   29.1300 C.ar  138  TYR138     -0.0201
    106  CD1       13.3560   22.5000   28.3180 C.ar  138  TYR138     -0.0009
    107  CD2       13.0680   20.1440   28.6650 C.ar  138  TYR138     -0.0009
    108  CE1       13.8950   22.2480   27.0400 C.ar  138  TYR138      0.0417
    109  CE2       13.5950   19.8760   27.4140 C.ar  138  TYR138      0.0417
    110  CZ        14.0200   20.9370   26.6080 C.ar  138  TYR138      0.1957
    111  OH        14.5460   20.6690   25.3570 O.3   138  TYR138     -0.2866
    112  N          9.8780   27.5550   24.5130 N.3   143  GLU143     -0.1245
    113  CA        11.2250   28.1060   24.6060 C.3   143  GLU143      0.1567
    114  C         11.7830   28.2900   23.1970 C.2   143  GLU143      0.2260
    115  O         11.7750   27.3450   22.4140 O.2   143  GLU143     -0.2867
    116  CB        12.1230   27.1650   25.4220 C.3   143  GLU143      0.0388
    117  CG        11.8380   27.2730   26.9460 C.3   143  GLU143      0.1160
    118  CD        12.5750   26.2620   27.8040 C.2   143  GLU143      0.3649
    119  OE1       13.7280   25.8860   27.4700 O.co2 143  GLU143     -0.2457
    120  OE2       11.9850   25.8540   28.8290 O.co2 143  GLU143     -0.2457
    121  N         25.6770   25.4520   19.3010 N.3   168  SER168     -0.1217
    122  CA        24.9600   24.2090   19.0270 C.3   168  SER168      0.1889
    123  C         24.3000   24.3300   17.6520 C.2   168  SER168      0.2288
    124  O         24.1820   25.4350   17.0930 O.2   168  SER168     -0.2866
    125  CB        23.8700   23.9960   20.0740 C.3   168  SER168      0.2089
    126  OG        22.9040   25.0220   19.9670 O.3   168  SER168     -0.2183
    127  N         21.2260   24.0140   17.1320 N.3   170  ARG170     -0.1231
    128  CA        20.0180   24.7670   17.4140 C.3   170  ARG170      0.1694
    129  C         20.2650   26.2820   17.3580 C.2   170  ARG170      0.2592
    130  O         19.4810   27.0120   16.7590 O.2   170  ARG170     -0.2718
    131  CB        19.4470   24.3630   18.7760 C.3   170  ARG170      0.0321
    132  CG        18.2100   25.1330   19.1760 C.3   170  ARG170      0.0489
    133  CD        17.5960   24.4850   20.4030 C.3   170  ARG170      0.2205
    134  NE        16.4440   25.2070   20.9350 N.pl3 170  ARG170     -0.0865
    135  CZ        16.5160   26.1120   21.9070 C.cat 170  ARG170      0.5346
    136  NH1       17.6970   26.4500   22.4290 N.pl3 170  ARG170      0.1354
    137  NH2       15.4070   26.6930   22.3410 N.pl3 170  ARG170      0.1354
    138  N         21.3450   26.7420   17.9880 N.am  171  ASP171     -0.1974
    139  CA        21.6710   28.1770   17.9840 C.3   171  ASP171      0.1709
    140  C         22.2530   28.6870   16.6650 C.2   171  ASP171      0.2293
    141  O         22.0650   29.8660   16.2950 O.2   171  ASP171     -0.2864
    142  CB        22.5510   28.5350   19.1860 C.3   171  ASP171      0.1436
    143  CG        21.7980   28.4180   20.5040 C.2   171  ASP171      0.3671
    144  OD1       20.5350   28.4840   20.4940 O.co2 171  ASP171     -0.2456
    145  OD2       22.4590   28.2580   21.5490 O.co2 171  ASP171     -0.2456
@<TRIPOS>BOND
     1   141   140    2
     2   140   139    1
     3   130   129    2
     4   124   123    2
     5   127   128    1
     6   129   128    1
     7   129   138   am
     8   128   131    1
     9   123   122    1
    10   139   138    1
    11   139   142    1
    12   131   132    1
    13   122   121    1
    14   122   125    1
    15   132   133    1
    16   142   143    1
    17   126   125    1
    18   133   134    1
    19   144   143   ar
    20   143   145   ar
    21   134   135    2
    22   135   137    1
    23   135   136    1
    24   115   114    2
    25    44    42   ar
    26    44    43   ar
    27    42    40   ar
    28   114   113    1
    29    35    36    1
    30    24    25    1
    31    43    41   ar
    32    26    25    1
    33    26    27    2
    34    25    28    1
    35    36    39    1
    36    36    37    1
    37    40    41   ar
    38    40    39    1
    39   112   113    1
    40   113   116    1
    41    37    38    2
    42   111   110    1
    43   116   117    1
    44    28    29    1
    45    29    30    1
    46    80    79    2
    47    66    65    2
    48    79    78    1
    49    74    73    1
    50    74    75    1
    51   110   108   ar
    52   110   109   ar
    53    63    64    1
    54    65    73   am
    55    65    64    1
    56    33    32    1
    57    77    75   am
    58    77    78    1
    59   117   118    1
    60    30    31    1
    61   108   106   ar
    62    32    31    2
    63    32    34    1
    64    75    76    2
    65    78    81    1
    66   109   107   ar
    67   119   118   ar
    68    64    67    1
    69   118   120   ar
    70   106   105   ar
    71   107   105   ar
    72    83    85   ar
    73    83    82   ar
    74    81    82    1
    75    85    87   ar
    76    67    68    1
    77    82    84   ar
    78   105   104    1
    79    62    61    1
    80    87    86   ar
    81    84    86   ar
    82    68    69   ar
    83    68    70   ar
    84   102   103    2
    85   102   101    1
    86    69    71   ar
    87    70    72   ar
    88   104   101    1
    89   101   100    1
    90    71    72   ar
    91    61    60    1
    92    22    23    1
    93    22    19    1
    94    99    98    1
    95    52    51    2
    96    45    46    1
    97    60    59    1
    98    49    46    1
    99    49    50    1
   100    19    20    1
   101    19    18    1
   102    51    53   am
   103    51    50    1
   104    20    21    2
   105    98    97   ar
   106    98    96   ar
   107    48    47    2
   108    46    47    1
   109    17    15   am
   110    97    95   ar
   111    96    94   ar
   112    59    58    1
   113     8     7    2
   114    15    14    1
   115    15    16    2
   116    95    93   ar
   117    94    93   ar
   118    14    11    1
   119    58    55    1
   120     9     7   am
   121     7     6    1
   122    93    92    1
   123    54    55    1
   124    11    12    1
   125    11    10    1
   126    55    56    1
   127    12    13    2
   128     6     5    1
   129    92    89    1
   130    57    56    2
   131     5     2    1
   132    88    89    1
   133    89    90    1
   134    91    90    2
   135     2     3    1
   136     2     1    1
   137     3     4    2
