@<TRIPOS>MOLECULE
tmp/2ixfB00.pdb
 76 73 0 0 0
SMALL
GASTEIGER

@<TRIPOS>ATOM
      1  N         16.5850  -10.0530  -24.1890 N.3   141  PHE141     -0.1241
      2  CA        16.3350   -9.9890  -25.6320 C.3   141  PHE141      0.1605
      3  C         16.5260  -11.3670  -26.2860 C.2   141  PHE141      0.2264
      4  O         17.3700  -12.1440  -25.8480 O.2   141  PHE141     -0.2867
      5  CB        17.2600   -8.9670  -26.3050 C.3   141  PHE141      0.0534
      6  CG        17.0780   -7.5450  -25.8260 C.ar  141  PHE141     -0.0203
      7  CD1       15.8130   -7.0160  -25.5900 C.ar  141  PHE141     -0.0042
      8  CD2       18.1780   -6.7160  -25.6610 C.ar  141  PHE141     -0.0042
      9  CE1       15.6590   -5.6940  -25.1660 C.ar  141  PHE141     -0.0003
     10  CE2       18.0260   -5.4070  -25.2470 C.ar  141  PHE141     -0.0003
     11  CZ        16.7580   -4.8960  -25.0010 C.ar  141  PHE141     -0.0000
     12  N         13.1490    0.3750  -34.0910 N.3   153  GLY153     -0.1210
     13  CA        12.7720    1.6070  -33.4000 C.3   153  GLY153      0.1956
     14  C         12.8880    1.5990  -31.8830 C.2   153  GLY153      0.2612
     15  O         12.5990    2.6140  -31.2450 O.2   153  GLY153     -0.2717
     16  N         13.3090    0.4780  -31.2910 N.am  154  ASN154     -0.1960
     17  CA        13.5050    0.4200  -29.8380 C.3   154  ASN154      0.1819
     18  C         14.7260    1.2250  -29.4050 C.2   154  ASN154      0.2621
     19  O         15.8710    0.7950  -29.5960 O.2   154  ASN154     -0.2715
     20  CB        13.6440   -1.0270  -29.3470 C.3   154  ASN154      0.1195
     21  CG        13.8150   -1.1210  -27.8300 C.2   154  ASN154      0.2630
     22  OD1       13.6870   -0.1250  -27.1040 O.2   154  ASN154     -0.2716
     23  ND2       14.1100   -2.3270  -27.3460 N.am  154  ASN154     -0.0877
     24  N         14.4840    2.3820  -28.7970 N.am  155  GLN155     -0.1963
     25  CA        15.5880    3.2460  -28.3700 C.3   155  GLN155      0.1733
     26  C         16.0400    3.0020  -26.9240 C.2   155  GLN155      0.2616
     27  O         16.9300    3.7060  -26.4480 O.2   155  GLN155     -0.2715
     28  CB        15.2650    4.7320  -28.5930 C.3   155  GLN155      0.0408
     29  CG        13.9720    5.2440  -27.9590 C.3   155  GLN155      0.0908
     30  CD        12.9450    5.6760  -28.9880 C.2   155  GLN155      0.2608
     31  OE1       12.5150    6.8300  -29.0050 O.2   155  GLN155     -0.2717
     32  NE2       12.5590    4.7560  -29.8600 N.am  155  GLN155     -0.0878
     33  N         15.4630    1.9930  -26.2550 N.am  156  LEU156     -0.1963
     34  CA        15.7730    1.6680  -24.8450 C.3   156  LEU156      0.1728
     35  C         15.3880    2.8060  -23.8970 C.2   156  LEU156      0.2617
     36  O         15.0010    3.8880  -24.3470 O.2   156  LEU156     -0.2715
     37  CB        17.2510    1.3320  -24.6400 C.3   156  LEU156      0.0311
     38  CG        17.9110    0.2310  -25.4650 C.3   156  LEU156      0.0022
     39  CD1       19.3570    0.1370  -25.0390 C.3   156  LEU156      0.0001
     40  CD2       17.2200   -1.1160  -25.2900 C.3   156  LEU156      0.0001
     41  N         15.4760    2.5490  -22.5920 N.am  157  SER157     -0.1936
     42  CA        15.2630    3.5900  -21.5860 C.3   157  SER157      0.2055
     43  C         16.5690    4.3530  -21.3910 C.2   157  SER157      0.2644
     44  O         17.6400    3.8670  -21.7640 O.2   157  SER157     -0.2714
     45  CB        14.7880    2.9900  -20.2560 C.3   157  SER157      0.2130
     46  OG        15.8790    2.5640  -19.4550 O.3   157  SER157     -0.2179
     47  N         16.4640    5.5390  -20.8030 N.am  158  GLY158     -0.1939
     48  CA        17.6170    6.3940  -20.5340 C.3   158  GLY158      0.2014
     49  C         18.6860    5.7250  -19.6880 C.2   158  GLY158      0.2639
     50  O         19.8710    5.8330  -19.9880 O.2   158  GLY158     -0.2714
     51  N         18.2640    5.0380  -18.6300 N.am  159  GLY159     -0.1939
     52  CA        19.1820    4.3390  -17.7360 C.3   159  GLY159      0.2014
     53  C         19.8050    3.1140  -18.3640 C.2   159  GLY159      0.2638
     54  O         20.9620    2.7800  -18.0820 O.2   159  GLY159     -0.2714
     55  N         19.0370    2.4400  -19.2190 N.am  160  GLN160     -0.1977
     56  CA        19.5350    1.3000  -19.9610 C.3   160  GLN160      0.1601
     57  C         20.6220    1.7040  -20.9560 C.2   160  GLN160      0.2287
     58  O         21.6310    1.0170  -21.0750 O.2   160  GLN160     -0.2864
     59  CB        18.3940    0.5900  -20.6890 C.3   160  GLN160      0.0394
     60  CG        17.4750   -0.1910  -19.7570 C.3   160  GLN160      0.0908
     61  CD        16.2160   -0.7010  -20.4490 C.2   160  GLN160      0.2608
     62  OE1       15.8640   -0.2630  -21.5460 O.2   160  GLN160     -0.2717
     63  NE2       15.5190   -1.6170  -19.7910 N.am  160  GLN160     -0.0878
     64  N         21.3170    9.0480  -14.7410 N.3   185  ALA185     -0.1245
     65  CA        20.2420    8.2370  -15.3470 C.3   185  ALA185      0.1562
     66  C         20.0980    6.8540  -14.6980 C.2   185  ALA185      0.2260
     67  O         19.1020    6.1660  -14.9170 O.2   185  ALA185     -0.2867
     68  CB        20.4910    8.0730  -16.8590 C.3   185  ALA185      0.0290
     69  N         19.5310    4.0360  -11.7920 N.3   187  ASP187     -0.1239
     70  CA        18.7620    3.8800  -10.5570 C.3   187  ASP187      0.1674
     71  C         19.7050    3.6860   -9.3770 C.2   187  ASP187      0.2266
     72  O         20.9160    3.5330   -9.5590 O.2   187  ASP187     -0.2867
     73  CB        17.7030    2.7560  -10.6410 C.3   187  ASP187      0.1410
     74  CG        18.2860    1.3590  -10.8420 C.2   187  ASP187      0.3668
     75  OD1       19.3760    1.0320  -10.3210 O.co2 187  ASP187     -0.2456
     76  OD2       17.6080    0.5590  -11.5140 O.co2 187  ASP187     -0.2456
@<TRIPOS>BOND
     1    12    13    1
     2    13    14    1
     3    14    16   am
     4    14    15    2
     5    16    17    1
     6    32    30   am
     7    17    18    1
     8    17    20    1
     9    19    18    2
    10    18    24   am
    11    20    21    1
    12    31    30    2
    13    30    29    1
    14    24    25    1
    15    28    25    1
    16    28    29    1
    17    25    26    1
    18    21    23   am
    19    21    22    2
    20    26    27    2
    21    26    33   am
    22     5     6    1
    23     5     2    1
    24     3     4    2
    25     3     2    1
    26    33    34    1
    27     6     8   ar
    28     6     7   ar
    29     8    10   ar
    30     2     1    1
    31     7     9   ar
    32    38    40    1
    33    38    39    1
    34    38    37    1
    35    10    11   ar
    36     9    11   ar
    37    34    37    1
    38    34    35    1
    39    36    35    2
    40    35    41   am
    41    41    42    1
    42    44    43    2
    43    42    43    1
    44    42    45    1
    45    62    61    2
    46    43    47   am
    47    58    57    2
    48    57    56    1
    49    47    48    1
    50    59    56    1
    51    59    60    1
    52    48    49    1
    53    61    63   am
    54    61    60    1
    55    45    46    1
    56    50    49    2
    57    56    55    1
    58    49    51   am
    59    55    53   am
    60    51    52    1
    61    53    54    2
    62    53    52    1
    63    68    65    1
    64    65    64    1
    65    65    66    1
    66    67    66    2
    67    69    70    1
    68    76    74   ar
    69    74    73    1
    70    74    75   ar
    71    73    70    1
    72    70    71    1
    73    72    71    2
