@<TRIPOS>MOLECULE
tmp/2ixfB01.pdb
 127 122 0 0 0
SMALL
GASTEIGER

@<TRIPOS>ATOM
      1  N         36.3870   28.5790  -26.3280 N.3    25  TYR25      -0.1241
      2  CA        36.1390   27.7080  -27.4730 C.3    25  TYR25       0.1605
      3  C         36.5710   28.4420  -28.7410 C.2    25  TYR25       0.2264
      4  O         36.3140   29.6360  -28.8790 O.2    25  TYR25      -0.2867
      5  CB        34.6650   27.2950  -27.5410 C.3    25  TYR25       0.0534
      6  CG        34.3040   26.2160  -26.5420 C.ar   25  TYR25      -0.0201
      7  CD1       33.8840   26.5350  -25.2540 C.ar   25  TYR25      -0.0009
      8  CD2       34.3930   24.8750  -26.8890 C.ar   25  TYR25      -0.0009
      9  CE1       33.5630   25.5310  -24.3330 C.ar   25  TYR25       0.0417
     10  CE2       34.0790   23.8770  -25.9900 C.ar   25  TYR25       0.0417
     11  CZ        33.6650   24.2010  -24.7210 C.ar   25  TYR25       0.1957
     12  OH        33.3640   23.1850  -23.8530 O.3    25  TYR25      -0.2866
     13  N         35.5630   28.7770  -31.8020 N.3    27  ASN27      -0.1225
     14  CA        34.5550   29.5370  -32.5490 C.3    27  ASN27       0.1785
     15  C         33.8700   30.6460  -31.7320 C.2    27  ASN27       0.2597
     16  O         33.1250   31.4620  -32.2870 O.2    27  ASN27      -0.2718
     17  CB        33.5240   28.5870  -33.1610 C.3    27  ASN27       0.1169
     18  CG        34.1300   27.6690  -34.2200 C.2    27  ASN27       0.2627
     19  OD1       35.2300   27.9130  -34.7310 O.2    27  ASN27      -0.2716
     20  ND2       33.4060   26.6070  -34.5570 N.am   27  ASN27      -0.0877
     21  N         34.1410   30.6740  -30.4260 N.am   28  HIS28      -0.1975
     22  CA        33.7290   31.7670  -29.5450 C.3    28  HIS28       0.1656
     23  C         34.9050   32.2110  -28.6730 C.2    28  HIS28       0.2291
     24  O         34.8610   32.0670  -27.4490 O.2    28  HIS28      -0.2864
     25  CB        32.5540   31.3220  -28.6650 C.3    28  HIS28       0.0771
     26  CG        31.2870   31.1160  -29.4280 C.ar   28  HIS28       0.0820
     27  ND1       30.3470   32.1120  -29.5910 N.ar   28  HIS28      -0.2267
     28  CD2       30.8210   30.0430  -30.1080 C.ar   28  HIS28       0.1154
     29  CE1       29.3480   31.6550  -30.3250 C.ar   28  HIS28       0.1986
     30  NE2       29.6110   30.4010  -30.6520 N.ar   28  HIS28      -0.2212
     31  N         34.7130   34.7630  -25.3650 N.3    31  VAL31      -0.1245
     32  CA        34.0040   34.3920  -24.1560 C.3    31  VAL31       0.1561
     33  C         34.8860   33.4060  -23.4050 C.2    31  VAL31       0.2260
     34  O         35.0370   32.2500  -23.8190 O.2    31  VAL31      -0.2867
     35  CB        32.6320   33.7710  -24.4550 C.3    31  VAL31       0.0252
     36  CG1       31.9460   33.3600  -23.1520 C.3    31  VAL31       0.0019
     37  CG2       31.7720   34.7510  -25.2430 C.3    31  VAL31       0.0019
     38  N         35.8670   30.7430  -20.8170 N.3    33  VAL33      -0.1245
     39  CA        35.1460   29.6670  -20.1420 C.3    33  VAL33       0.1561
     40  C         35.9280   29.1790  -18.9130 C.2    33  VAL33       0.2260
     41  O         35.3690   29.0840  -17.8360 O.2    33  VAL33      -0.2867
     42  CB        34.8600   28.4820  -21.0950 C.3    33  VAL33       0.0252
     43  CG1       34.1710   27.3480  -20.3430 C.3    33  VAL33       0.0019
     44  CG2       33.9930   28.9390  -22.2730 C.3    33  VAL33       0.0019
     45  N         25.7320   25.5840  -12.9030 N.3    53  ASN53      -0.1225
     46  CA        25.5000   25.4170  -14.3260 C.3    53  ASN53       0.1785
     47  C         26.3590   26.3930  -15.1200 C.2    53  ASN53       0.2598
     48  O         26.4230   27.5850  -14.8080 O.2    53  ASN53      -0.2718
     49  CB        24.0110   25.5800  -14.6660 C.3    53  ASN53       0.1169
     50  CG        23.1540   24.4630  -14.0880 C.2    53  ASN53       0.2627
     51  OD1       22.0730   24.7070  -13.5490 O.2    53  ASN53      -0.2716
     52  ND2       23.6360   23.2310  -14.1960 N.am   53  ASN53      -0.0877
     53  N         27.0520   25.8620  -16.1230 N.am   54  GLY54      -0.1942
     54  CA        27.8990   26.6540  -16.9800 C.3    54  GLY54       0.2014
     55  C         29.2490   27.0370  -16.4060 C.2    54  GLY54       0.2640
     56  O         29.9400   27.8490  -17.0110 O.2    54  GLY54      -0.2714
     57  N         29.6370   26.4610  -15.2620 N.am   55  SER55      -0.1935
     58  CA        30.9180   26.7890  -14.6220 C.3    55  SER55       0.2055
     59  C         32.1370   26.2800  -15.3940 C.2    55  SER55       0.2644
     60  O         33.2340   26.8260  -15.2340 O.2    55  SER55      -0.2714
     61  CB        30.9750   26.2720  -13.1720 C.3    55  SER55       0.2130
     62  OG        30.7360   24.8770  -13.1030 O.3    55  SER55      -0.2179
     63  N         31.9470   25.2300  -16.2030 N.am   56  GLY56      -0.1939
     64  CA        32.9900   24.7120  -17.0920 C.3    56  GLY56       0.2014
     65  C         33.3840   23.2510  -16.8980 C.2    56  GLY56       0.2639
     66  O         34.4550   22.8440  -17.3400 O.2    56  GLY56      -0.2714
     67  N         32.5170   22.4590  -16.2690 N.am   57  LYS57      -0.1963
     68  CA        32.8340   21.0740  -15.8950 C.3    57  LYS57       0.1728
     69  C         33.0160   20.1580  -17.1070 C.2    57  LYS57       0.2617
     70  O         33.9880   19.4070  -17.1860 O.2    57  LYS57      -0.2715
     71  CB        31.7550   20.5150  -14.9510 C.3    57  LYS57       0.0311
     72  CG        31.5730   21.3520  -13.6610 C.3    57  LYS57       0.0038
     73  CD        30.5390   20.7580  -12.7010 C.3    57  LYS57       0.0206
     74  CE        29.1060   20.8810  -13.2130 C.3    57  LYS57       0.1093
     75  NZ        28.6830   22.2920  -13.4930 N.3    57  LYS57      -0.1314
     76  N         32.0920   20.2220  -18.0550 N.am   58  SER58      -0.1936
     77  CA        32.2190   19.4310  -19.2750 C.3    58  SER58       0.2055
     78  C         33.3650   19.9280  -20.1580 C.2    58  SER58       0.2643
     79  O         33.9890   19.1490  -20.8830 O.2    58  SER58      -0.2714
     80  CB        30.9050   19.4170  -20.0480 C.3    58  SER58       0.2130
     81  OG        29.9530   18.6830  -19.3140 O.3    58  SER58      -0.2179
     82  N         33.6500   21.2250  -20.0800 N.am   59  THR59      -0.1950
     83  CA        34.7810   21.8010  -20.8000 C.3    59  THR59       0.1897
     84  C         36.1010   21.2140  -20.2930 C.2    59  THR59       0.2313
     85  O         36.9820   20.8440  -21.0820 O.2    59  THR59      -0.2863
     86  CB        34.7730   23.3330  -20.6730 C.3    59  THR59       0.1794
     87  OG1       33.5250   23.8290  -21.1770 O.3    59  THR59      -0.2208
     88  CG2       35.9430   23.9580  -21.4470 C.3    59  THR59       0.0378
     89  N         40.2450   19.6680  -27.1370 N.3    68  TYR68      -0.1241
     90  CA        40.6740   21.0520  -27.3260 C.3    68  TYR68       0.1605
     91  C         41.9470   21.2430  -26.5180 C.2    68  TYR68       0.2264
     92  O         42.2280   20.4740  -25.5960 O.2    68  TYR68      -0.2867
     93  CB        39.6180   22.0450  -26.8280 C.3    68  TYR68       0.0534
     94  CG        38.2640   21.9490  -27.4910 C.ar   68  TYR68      -0.0201
     95  CD1       38.0130   22.5810  -28.7070 C.ar   68  TYR68      -0.0009
     96  CD2       37.2210   21.2550  -26.8850 C.ar   68  TYR68      -0.0009
     97  CE1       36.7600   22.5050  -29.3120 C.ar   68  TYR68       0.0417
     98  CE2       35.9660   21.1760  -27.4790 C.ar   68  TYR68       0.0417
     99  CZ        35.7430   21.7980  -28.6840 C.ar   68  TYR68       0.1957
    100  OH        34.5040   21.7150  -29.2700 O.3    68  TYR68      -0.2866
    101  N         28.6060   13.2970  -15.4780 N.3   181  GLN181     -0.1245
    102  CA        27.2210   13.0650  -15.0640 C.3   181  GLN181      0.1566
    103  C         26.7050   11.7590  -15.6560 C.2   181  GLN181      0.2260
    104  O         25.5470   11.6520  -16.0760 O.2   181  GLN181     -0.2867
    105  CB        26.3350   14.2430  -15.4490 C.3   181  GLN181      0.0367
    106  CG        26.8870   15.5880  -14.9740 C.3   181  GLN181      0.0905
    107  CD        25.8400   16.6890  -14.9620 C.2   181  GLN181      0.2608
    108  OE1       24.7290   16.4920  -14.4810 O.2   181  GLN181     -0.2717
    109  NE2       26.2000   17.8650  -15.4770 N.am  181  GLN181     -0.0878
    110  N         32.2220   13.9310  -12.4590 N.3   212  ILE212     -0.1245
    111  CA        31.5360   15.2100  -12.5810 C.3   212  ILE212      0.1561
    112  C         30.0740   14.9890  -12.2280 C.2   212  ILE212      0.2260
    113  O         29.4360   14.1110  -12.7960 O.2   212  ILE212     -0.2867
    114  CB        31.6480   15.7660  -14.0130 C.3   212  ILE212      0.0252
    115  CG1       33.1200   15.8610  -14.4260 C.3   212  ILE212      0.0019
    116  CG2       30.9630   17.1170  -14.1010 C.3   212  ILE212      0.0019
    117  CD1       33.3510   16.0340  -15.9140 C.3   212  ILE212      0.0001
    118  N         26.2260   16.7840  -10.1260 N.3   214  HIS214     -0.1241
    119  CA        25.4590   17.6950   -9.2820 C.3   214  HIS214      0.1621
    120  C         24.8470   16.9410   -8.0830 C.2   214  HIS214      0.2264
    121  O         24.1740   17.5480   -7.2550 O.2   214  HIS214     -0.2867
    122  CB        24.3450   18.3970  -10.0800 C.3   214  HIS214      0.0745
    123  CG        24.8410   19.3800  -11.0990 C.ar  214  HIS214      0.0817
    124  ND1       25.3870   20.5980  -10.7590 N.ar  214  HIS214     -0.2268
    125  CD2       24.8460   19.3330  -12.4530 C.ar  214  HIS214      0.1154
    126  CE1       25.7210   21.2510  -11.8590 C.ar  214  HIS214      0.1986
    127  NE2       25.4020   20.5070  -12.9010 N.ar  214  HIS214     -0.2212
@<TRIPOS>BOND
     1    19    18    2
     2    20    18   am
     3    18    17    1
     4    17    14    1
     5    14    13    1
     6    14    15    1
     7    16    15    2
     8    15    21   am
     9    30    29   ar
    10    30    28   ar
    11    21    22    1
    12    29    27   ar
    13    28    26   ar
    14    27    26   ar
    15    22    23    1
    16    22    25    1
    17    26    25    1
    18    97    95   ar
    19    97    99   ar
    20   100    99    1
    21     4     3    2
    22     3     2    1
    23    95    94   ar
    24    99    98   ar
    25    23    24    2
    26     5     2    1
    27     5     6    1
    28    94    96   ar
    29    94    93    1
    30    98    96   ar
    31     2     1    1
    32    90    89    1
    33    90    93    1
    34    90    91    1
    35     8     6   ar
    36     8    10   ar
    37     6     7   ar
    38    91    92    2
    39    10    11   ar
    40    31    32    1
    41     7     9   ar
    42    37    35    1
    43    11     9   ar
    44    11    12    1
    45    35    32    1
    46    35    36    1
    47    32    33    1
    48    34    33    2
    49    44    42    1
    50    88    86    1
    51    87    86    1
    52    42    43    1
    53    42    39    1
    54    85    84    2
    55    79    78    2
    56    38    39    1
    57    83    86    1
    58    83    84    1
    59    83    82    1
    60    78    82   am
    61    78    77    1
    62    39    40    1
    63    80    81    1
    64    80    77    1
    65    77    76    1
    66    40    41    2
    67    76    69   am
    68    66    65    2
    69    70    69    2
    70    69    68    1
    71    64    65    1
    72    64    63    1
    73    56    55    2
    74    54    55    1
    75    54    53    1
    76    65    67   am
    77    55    57   am
    78    67    68    1
    79    63    59   am
    80    53    47   am
    81   104   103    2
    82   117   115    1
    83    68    71    1
    84   103   102    1
    85   101   102    1
    86   109   107   am
    87   105   102    1
    88   105   106    1
    89    59    60    2
    90    59    58    1
    91    57    58    1
    92    47    48    2
    93    47    46    1
    94   106   107    1
    95   107   108    2
    96    71    72    1
    97    49    46    1
    98    49    50    1
    99    58    61    1
   100   115   114    1
   101    46    45    1
   102    52    50   am
   103   116   114    1
   104    50    51    2
   105   114   111    1
   106    72    73    1
   107    75    74    1
   108    74    73    1
   109    61    62    1
   110   127   125   ar
   111   127   126   ar
   112   113   112    2
   113   111   110    1
   114   111   112    1
   115   125   123   ar
   116   126   124   ar
   117   123   124   ar
   118   123   122    1
   119   118   119    1
   120   122   119    1
   121   119   120    1
   122   120   121    2
