@<TRIPOS>MOLECULE
tmp/2ixiA00.pdb
 97 91 0 0 0
SMALL
GASTEIGER

@<TRIPOS>ATOM
      1  N         30.5950    8.7810   16.2800 N.3    50  GLN50      -0.1245
      2  CA        29.6460    9.6790   15.6190 C.3    50  GLN50       0.1566
      3  C         29.4080   10.9410   16.4710 C.2    50  GLN50       0.2260
      4  O         29.3030   10.8360   17.6920 O.2    50  GLN50      -0.2867
      5  CB        28.3380    8.9160   15.4140 C.3    50  GLN50       0.0367
      6  CG        27.4890    9.3730   14.2680 C.3    50  GLN50       0.0905
      7  CD        26.1930    8.5960   14.1770 C.2    50  GLN50       0.2608
      8  OE1       25.1110    9.1660   14.3310 O.2    50  GLN50      -0.2717
      9  NE2       26.2910    7.2950   13.9450 N.am   50  GLN50      -0.0878
     10  N         26.5730   14.1320   16.5930 N.3    52  ASN52      -0.1240
     11  CA        25.2430   14.5640   16.1350 C.3    52  ASN52       0.1653
     12  C         24.9080   16.0100   16.5620 C.2    52  ASN52       0.2266
     13  O         25.3920   16.4820   17.5800 O.2    52  ASN52      -0.2867
     14  CB        24.1820   13.6090   16.6880 C.3    52  ASN52       0.1155
     15  CG        24.3280   12.1870   16.1520 C.2    52  ASN52       0.2627
     16  OD1       24.8030   11.9810   15.0450 O.2    52  ASN52      -0.2716
     17  ND2       23.9250   11.1940   16.9610 N.am   52  ASN52      -0.0877
     18  N         12.6160   15.7880   23.3810 N.3    62  ARG62      -0.1245
     19  CA        13.0570   14.5780   22.6590 C.3    62  ARG62       0.1563
     20  C         13.4820   13.4850   23.6500 C.2    62  ARG62       0.2260
     21  O         14.3450   13.7310   24.4970 O.2    62  ARG62      -0.2867
     22  CB        14.2490   14.8860   21.7390 C.3    62  ARG62       0.0307
     23  CG        14.1100   16.1330   20.8650 C.3    62  ARG62       0.0489
     24  CD        15.0140   16.0770   19.6060 C.3    62  ARG62       0.2205
     25  NE        14.8950   17.2940   18.7780 N.pl3  62  ARG62      -0.0865
     26  CZ        15.1160   17.3610   17.4610 C.cat  62  ARG62       0.5346
     27  NH1       15.4500   16.2810   16.7570 N.pl3  62  ARG62       0.1354
     28  NH2       14.9850   18.5230   16.8250 N.pl3  62  ARG62       0.1354
     29  N         15.1900    7.9630   24.8900 N.3    65  HIS65      -0.1241
     30  CA        15.7650    7.1390   23.8060 C.3    65  HIS65       0.1621
     31  C         16.9500    6.2380   24.1940 C.2    65  HIS65       0.2264
     32  O         17.8060    6.6220   24.9850 O.2    65  HIS65      -0.2867
     33  CB        16.1950    8.0440   22.6390 C.3    65  HIS65       0.0745
     34  CG        15.0630    8.7820   21.9880 C.ar   65  HIS65       0.0817
     35  ND1       15.2460    9.9450   21.2730 N.ar   65  HIS65      -0.2268
     36  CD2       13.7350    8.5180   21.9400 C.ar   65  HIS65       0.1154
     37  CE1       14.0790   10.3700   20.8200 C.ar   65  HIS65       0.1986
     38  NE2       13.1480    9.5140   21.1980 N.ar   65  HIS65      -0.2212
     39  N         24.5610    2.8370   22.8220 N.3    72  GLN72      -0.1245
     40  CA        25.4210    4.0140   22.6780 C.3    72  GLN72       0.1566
     41  C         25.5920    4.7200   24.0160 C.2    72  GLN72       0.2260
     42  O         24.6050    5.1430   24.6250 O.2    72  GLN72      -0.2867
     43  CB        24.8020    5.0210   21.6920 C.3    72  GLN72       0.0367
     44  CG        24.6790    4.5920   20.2300 C.3    72  GLN72       0.0905
     45  CD        23.7390    5.5100   19.4320 C.2    72  GLN72       0.2608
     46  OE1       22.6590    5.8680   19.8990 O.2    72  GLN72      -0.2717
     47  NE2       24.1540    5.8930   18.2250 N.am   72  GLN72      -0.0878
     48  N         25.9010   15.9730   20.6250 N.3   134  TYR134     -0.1241
     49  CA        26.3030   14.7800   21.3450 C.3   134  TYR134      0.1605
     50  C         27.1610   13.8080   20.5460 C.2   134  TYR134      0.2264
     51  O         26.9970   13.6590   19.3380 O.2   134  TYR134     -0.2867
     52  CB        25.1090   14.0810   22.0030 C.3   134  TYR134      0.0534
     53  CG        24.0310   13.5320   21.0960 C.ar  134  TYR134     -0.0201
     54  CD1       23.9720   12.1700   20.8040 C.ar  134  TYR134     -0.0009
     55  CD2       23.0420   14.3530   20.5920 C.ar  134  TYR134     -0.0009
     56  CE1       22.9710   11.6500   20.0000 C.ar  134  TYR134      0.0417
     57  CE2       22.0410   13.8500   19.7790 C.ar  134  TYR134      0.0417
     58  CZ        22.0130   12.4970   19.4880 C.ar  134  TYR134      0.1957
     59  OH        21.0190   11.9900   18.6850 O.3   134  TYR134     -0.2866
     60  N         24.3480    4.8800   14.8450 N.3   140  TRP140     -0.1241
     61  CA        22.8970    4.8410   14.6770 C.3   140  TRP140      0.1605
     62  C         22.4330    3.5150   14.0630 C.2   140  TRP140      0.2264
     63  O         22.9570    3.0810   13.0290 O.2   140  TRP140     -0.2867
     64  CB        22.4760    6.0010   13.7670 C.3   140  TRP140      0.0550
     65  CG        21.0160    6.1050   13.4750 C.ar  140  TRP140      0.0003
     66  CD1       19.9940    6.1500   14.3870 C.ar  140  TRP140      0.0946
     67  CD2       20.4010    6.2030   12.1810 C.ar  140  TRP140      0.0152
     68  NE1       18.7880    6.2590   13.7410 N.ar  140  TRP140     -0.2442
     69  CE2       19.0070    6.2930   12.3880 C.ar  140  TRP140      0.0810
     70  CE3       20.8940    6.2230   10.8660 C.ar  140  TRP140      0.0012
     71  CZ2       18.0990    6.3960   11.3350 C.ar  140  TRP140      0.0191
     72  CZ3       19.9850    6.3250    9.8130 C.ar  140  TRP140      0.0001
     73  CH2       18.6030    6.4050   10.0560 C.ar  140  TRP140      0.0015
     74  N         16.4590    0.9150   17.8940 N.3   145  GLU145     -0.1245
     75  CA        15.9590    2.0640   18.6510 C.3   145  GLU145      0.1567
     76  C         14.7170    1.6980   19.4550 C.2   145  GLU145      0.2260
     77  O         13.8610    0.9730   18.9690 O.2   145  GLU145     -0.2867
     78  CB        15.6440    3.2160   17.6960 C.3   145  GLU145      0.0388
     79  CG        16.8850    3.8960   17.1460 C.3   145  GLU145      0.1160
     80  CD        16.5630    5.1510   16.3480 C.2   145  GLU145      0.3649
     81  OE1       15.5650    5.1440   15.6010 O.co2 145  GLU145     -0.2457
     82  OE2       17.3110    6.1410   16.4610 O.co2 145  GLU145     -0.2457
     83  N          7.4190   14.5800   18.9190 N.3   168  SER168     -0.1217
     84  CA         7.1920   13.8900   17.6500 C.3   168  SER168      0.1889
     85  C          6.1550   12.7830   17.8580 C.2   168  SER168      0.2288
     86  O          5.8730   12.3980   18.9950 O.2   168  SER168     -0.2866
     87  CB         8.4950   13.3000   17.1080 C.3   168  SER168      0.2089
     88  OG         8.9280   12.1900   17.8750 O.3   168  SER168     -0.2183
     89  N          6.4870    9.6030   17.0500 N.3   170  LYS170     -0.1245
     90  CA         7.2630    8.5140   17.6600 C.3   170  LYS170      0.1561
     91  C          7.3170    8.5940   19.1800 C.2   170  LYS170      0.2260
     92  O          7.1230    7.5940   19.8610 O.2   170  LYS170     -0.2867
     93  CB         8.7120    8.5240   17.1700 C.3   170  LYS170      0.0271
     94  CG         9.0170    7.6820   15.9400 C.3   170  LYS170      0.0035
     95  CD        10.4410    7.0670   15.9860 C.3   170  LYS170      0.0206
     96  CE        11.4930    7.9210   16.7230 C.3   170  LYS170      0.1093
     97  NZ        11.5290    7.7010   18.2170 N.3   170  LYS170     -0.1314
@<TRIPOS>BOND
     1    72    73   ar
     2    72    70   ar
     3    73    71   ar
     4    70    67   ar
     5    71    69   ar
     6    67    69   ar
     7    67    65   ar
     8    69    68   ar
     9    63    62    2
    10    65    64    1
    11    65    66   ar
    12    68    66   ar
    13    64    61    1
    14     9     7   am
    15    62    61    1
    16     7     6    1
    17     7     8    2
    18     6     5    1
    19    61    60    1
    20    16    15    2
    21     5     2    1
    22    81    80   ar
    23     2     1    1
    24     2     3    1
    25    94    95    1
    26    94    93    1
    27    95    96    1
    28    11    12    1
    29    11    10    1
    30    11    14    1
    31    15    14    1
    32    15    17   am
    33    80    82   ar
    34    80    79    1
    35     3     4    2
    36    12    13    2
    37    96    97    1
    38    27    26    1
    39    28    26    1
    40    89    90    1
    41    87    84    1
    42    87    88    1
    43    79    78    1
    44    93    90    1
    45    26    25    2
    46    84    85    1
    47    84    83    1
    48    90    91    1
    49    78    75    1
    50    85    86    2
    51    74    75    1
    52    47    45   am
    53    75    76    1
    54    59    58    1
    55    25    24    1
    56    77    76    2
    57    91    92    2
    58    51    50    2
    59    45    46    2
    60    45    44    1
    61    58    57   ar
    62    58    56   ar
    63    24    23    1
    64    57    55   ar
    65    56    54   ar
    66    44    43    1
    67    50    49    1
    68    55    53   ar
    69    48    49    1
    70    54    53   ar
    71    37    38   ar
    72    37    35   ar
    73    23    22    1
    74    53    52    1
    75    38    36   ar
    76    35    34   ar
    77    49    52    1
    78    43    40    1
    79    22    19    1
    80    36    34   ar
    81    34    33    1
    82    33    30    1
    83    19    18    1
    84    19    20    1
    85    40    39    1
    86    40    41    1
    87    20    21    2
    88    30    31    1
    89    30    29    1
    90    41    42    2
    91    31    32    2
