@<TRIPOS>MOLECULE
tmp/2ixkB01.pdb
 141 133 0 0 0
SMALL
GASTEIGER

@<TRIPOS>ATOM
      1  N         40.4540   14.9770   20.2000 N.3    50  GLN50      -0.1245
      2  CA        40.1260   16.2210   20.8630 C.3    50  GLN50       0.1566
      3  C         39.1550   17.0100   19.9940 C.2    50  GLN50       0.2260
      4  O         39.2620   16.9900   18.7760 O.2    50  GLN50      -0.2867
      5  CB        41.4270   16.9890   21.1350 C.3    50  GLN50       0.0367
      6  CG        41.3170   18.1230   22.0730 C.3    50  GLN50       0.0905
      7  CD        42.6200   18.9180   22.2230 C.2    50  GLN50       0.2608
      8  OE1       42.6070   20.1350   22.1140 O.2    50  GLN50      -0.2717
      9  NE2       43.7240   18.2370   22.4680 N.am   50  GLN50      -0.0878
     10  N         37.5560   20.9690   19.8010 N.3    52  ASN52      -0.1240
     11  CA        37.7560   22.3330   20.2590 C.3    52  ASN52       0.1653
     12  C         36.6150   23.2270   19.7880 C.2    52  ASN52       0.2266
     13  O         36.0420   22.9790   18.7500 O.2    52  ASN52      -0.2867
     14  CB        39.0600   22.8660   19.7040 C.3    52  ASN52       0.1155
     15  CG        40.2680   22.1020   20.2080 C.2    52  ASN52       0.2627
     16  OD1       40.3010   21.6070   21.3450 O.2    52  ASN52      -0.2716
     17  ND2       41.2870   22.0300   19.3710 N.am   52  ASN52      -0.0877
     18  N         35.5640   27.5170   19.6390 N.3    54  SER54      -0.1217
     19  CA        35.9080   28.9060   19.9080 C.3    54  SER54       0.1889
     20  C         34.7760   29.8080   19.4700 C.2    54  SER54       0.2288
     21  O         33.9560   29.4320   18.6490 O.2    54  SER54      -0.2866
     22  CB        37.2190   29.3120   19.2330 C.3    54  SER54       0.2089
     23  OG        37.1370   29.1760   17.8280 O.3    54  SER54      -0.2183
     24  N         42.0950   33.8810   13.2300 N.3    62  ARG62      -0.1245
     25  CA        42.9250   32.9270   13.9770 C.3    62  ARG62       0.1563
     26  C         43.7370   32.1090   12.9910 C.2    62  ARG62       0.2260
     27  O         43.2020   31.5530   12.0300 O.2    62  ARG62      -0.2867
     28  CB        42.0850   32.0210   14.8850 C.3    62  ARG62       0.0307
     29  CG        41.0760   32.7540   15.7680 C.3    62  ARG62       0.0489
     30  CD        40.5800   31.8710   16.8810 C.3    62  ARG62       0.2205
     31  NE        39.5200   32.4960   17.6720 N.pl3  62  ARG62      -0.0865
     32  CZ        39.4160   32.4310   18.9970 C.cat  62  ARG62       0.5346
     33  NH1       40.3000   31.7470   19.7100 N.pl3  62  ARG62       0.1354
     34  NH2       38.4200   33.0540   19.6210 N.pl3  62  ARG62       0.1354
     35  N         47.9360   28.2230   11.8580 N.3    65  HIS65      -0.1241
     36  CA        48.4370   27.3310   12.8940 C.3    65  HIS65       0.1621
     37  C         48.7270   25.9290   12.4170 C.2    65  HIS65       0.2264
     38  O         48.0270   25.3860   11.5500 O.2    65  HIS65      -0.2867
     39  CB        47.4060   27.2110   14.0150 C.3    65  HIS65       0.0745
     40  CG        47.1620   28.4930   14.7400 C.ar   65  HIS65       0.0817
     41  ND1       45.9840   28.7500   15.4100 N.ar   65  HIS65      -0.2268
     42  CD2       47.9290   29.5980   14.8830 C.ar   65  HIS65       0.1154
     43  CE1       46.0350   29.9690   15.9250 C.ar   65  HIS65       0.1986
     44  NE2       47.2100   30.4990   15.6310 N.ar   65  HIS65      -0.2212
     45  N         48.4370   17.6410   13.7830 N.3    72  GLN72      -0.1245
     46  CA        46.9870   17.4250   13.8850 C.3    72  GLN72       0.1566
     47  C         46.3000   17.5690   12.5320 C.2    72  GLN72       0.2260
     48  O         46.3510   18.6390   11.9090 O.2    72  GLN72      -0.2867
     49  CB        46.3780   18.4650   14.8240 C.3    72  GLN72       0.0367
     50  CG        46.8590   18.3970   16.2550 C.3    72  GLN72       0.0905
     51  CD        46.4410   19.5890   17.0620 C.2    72  GLN72       0.2608
     52  OE1       46.6100   20.7450   16.6350 O.2    72  GLN72      -0.2717
     53  NE2       45.8770   19.3340   18.2290 N.am   72  GLN72      -0.0878
     54  N         42.6690   18.1490   11.0410 N.3    74  LYS74      -0.1245
     55  CA        41.5410   18.8890   11.6090 C.3    74  LYS74       0.1561
     56  C         40.2920   18.7730   10.7520 C.2    74  LYS74       0.2260
     57  O         40.3600   18.9110    9.5410 O.2    74  LYS74      -0.2867
     58  CB        41.8860   20.3790   11.7510 C.3    74  LYS74       0.0271
     59  CG        43.0820   20.6270   12.6260 C.3    74  LYS74       0.0035
     60  CD        43.5600   22.0600   12.6150 C.3    74  LYS74       0.0206
     61  CE        44.8330   22.1870   13.4430 C.3    74  LYS74       0.1093
     62  NZ        45.6190   23.4910   13.2750 N.3    74  LYS74      -0.1314
     63  N         46.4130   26.0490    9.0830 N.3   121  HIS121     -0.1241
     64  CA        44.9960   26.3290    9.0490 C.3   121  HIS121      0.1621
     65  C         44.7270   27.6810    9.6900 C.2   121  HIS121      0.2264
     66  O         45.3340   28.0280   10.7120 O.2   121  HIS121     -0.2867
     67  CB        44.2420   25.2530    9.8360 C.3   121  HIS121      0.0745
     68  CG        42.8100   25.5800   10.0730 C.ar  121  HIS121      0.0817
     69  ND1       42.2870   25.7620   11.3380 N.ar  121  HIS121     -0.2268
     70  CD2       41.8140   25.8680    9.2050 C.ar  121  HIS121      0.1154
     71  CE1       41.0090   26.0780   11.2320 C.ar  121  HIS121      0.1986
     72  NE2       40.6970   26.1500    9.9500 N.ar  121  HIS121     -0.2212
     73  N         41.2760   30.9160    9.9610 N.3   123  PHE123     -0.1241
     74  CA        39.9830   31.4210    9.5320 C.3   123  PHE123      0.1605
     75  C         39.8030   32.8780    9.9480 C.2   123  PHE123      0.2264
     76  O         40.4630   33.3520   10.8730 O.2   123  PHE123     -0.2867
     77  CB        38.8260   30.5500   10.0550 C.3   123  PHE123      0.0534
     78  CG        38.6180   30.6290   11.5230 C.ar  123  PHE123     -0.0203
     79  CD1       37.7740   31.5860   12.0730 C.ar  123  PHE123     -0.0042
     80  CD2       39.2360   29.7270   12.3660 C.ar  123  PHE123     -0.0042
     81  CE1       37.5650   31.6520   13.4520 C.ar  123  PHE123     -0.0003
     82  CE2       39.0440   29.7900   13.7390 C.ar  123  PHE123     -0.0003
     83  CZ        38.2090   30.7480   14.2820 C.ar  123  PHE123     -0.0000
     84  N         36.1420   22.2540   15.8800 N.3   134  TYR134     -0.1241
     85  CA        36.9310   21.3200   15.1150 C.3   134  TYR134      0.1605
     86  C         37.4030   20.1510   15.9200 C.2   134  TYR134      0.2264
     87  O         37.5370   20.2330   17.1250 O.2   134  TYR134     -0.2867
     88  CB        38.0810   21.9970   14.3850 C.3   134  TYR134      0.0534
     89  CG        39.1190   22.6810   15.2140 C.ar  134  TYR134     -0.0201
     90  CD1       40.3910   22.1430   15.3300 C.ar  134  TYR134     -0.0009
     91  CD2       38.8530   23.8820   15.8360 C.ar  134  TYR134     -0.0009
     92  CE1       41.3620   22.7730   16.0570 C.ar  134  TYR134      0.0417
     93  CE2       39.8190   24.5270   16.5720 C.ar  134  TYR134      0.0417
     94  CZ        41.0680   23.9660   16.6720 C.ar  134  TYR134      0.1957
     95  OH        42.0210   24.5930   17.4250 O.3   134  TYR134     -0.2866
     96  N         46.6740   18.7960   21.6220 N.3   140  TRP140     -0.1241
     97  CA        47.3640   20.0720   21.7280 C.3   140  TRP140      0.1605
     98  C         48.7380   19.8610   22.3410 C.2   140  TRP140      0.2264
     99  O         48.8780   19.1930   23.3590 O.2   140  TRP140     -0.2867
    100  CB        46.5570   20.9680   22.6490 C.3   140  TRP140      0.0550
    101  CG        47.0810   22.3460   22.8740 C.ar  140  TRP140      0.0003
    102  CD1       47.5000   23.2270   21.9290 C.ar  140  TRP140      0.0946
    103  CD2       47.1780   23.0090   24.1240 C.ar  140  TRP140      0.0152
    104  NE1       47.8850   24.4080   22.5220 N.ar  140  TRP140     -0.2442
    105  CE2       47.6790   24.2990   23.8740 C.ar  140  TRP140      0.0810
    106  CE3       46.8920   22.6360   25.4410 C.ar  140  TRP140      0.0012
    107  CZ2       47.9100   25.2240   24.8910 C.ar  140  TRP140      0.0191
    108  CZ3       47.1220   23.5610   26.4640 C.ar  140  TRP140      0.0001
    109  CH2       47.6320   24.8380   26.1760 C.ar  140  TRP140      0.0015
    110  N         53.6430   24.0020   18.6720 N.3   145  GLU145     -0.1245
    111  CA        52.8270   24.9280   17.9010 C.3   145  GLU145      0.1567
    112  C         53.6990   25.8880   17.1170 C.2   145  GLU145      0.2260
    113  O         54.7110   26.3880   17.6200 O.2   145  GLU145     -0.2867
    114  CB        51.8830   25.7320   18.8040 C.3   145  GLU145      0.0388
    115  CG        50.6610   24.9550   19.2180 C.3   145  GLU145      0.1160
    116  CD        49.6900   25.8000   20.0210 C.2   145  GLU145      0.3649
    117  OE1       50.1450   26.7150   20.7520 O.co2 145  GLU145     -0.2457
    118  OE2       48.4730   25.5500   19.8970 O.co2 145  GLU145     -0.2457
    119  N         45.2870   37.6360   17.9090 N.3   168  SER168     -0.1217
    120  CA        45.9910   37.3730   19.1520 C.3   168  SER168      0.1889
    121  C         47.4450   37.8430   18.9920 C.2   168  SER168      0.2288
    122  O         47.9400   38.0050   17.8720 O.2   168  SER168     -0.2866
    123  CB        45.9790   35.9000   19.4670 C.3   168  SER168      0.2089
    124  OG        46.7640   35.1980   18.5320 O.3   168  SER168     -0.2183
    125  N         50.1390   36.0440   19.6840 N.3   170  LYS170     -0.1231
    126  CA        50.8010   34.8970   19.0360 C.3   170  LYS170      0.1693
    127  C         50.6580   34.9840   17.5180 C.2   170  LYS170      0.2592
    128  O         51.6240   34.8400   16.7670 O.2   170  LYS170     -0.2718
    129  CB        50.1790   33.5730   19.5100 C.3   170  LYS170      0.0285
    130  CG        50.6390   33.1200   20.8680 C.3   170  LYS170      0.0035
    131  CD        49.8210   31.9320   21.4470 C.3   170  LYS170      0.0206
    132  CE        49.7240   30.7040   20.5450 C.3   170  LYS170      0.1093
    133  NZ        48.5230   30.6760   19.6800 N.3   170  LYS170     -0.1314
    134  N         49.4380   35.2700   17.0740 N.am  171  ASP171     -0.1974
    135  CA        49.1670   35.3040   15.6460 C.3   171  ASP171      0.1709
    136  C         49.7420   36.5510   14.9810 C.2   171  ASP171      0.2293
    137  O         50.2500   36.4810   13.8620 O.2   171  ASP171     -0.2864
    138  CB        47.6760   35.1410   15.3950 C.3   171  ASP171      0.1436
    139  CG        47.2030   33.7350   15.7010 C.2   171  ASP171      0.3671
    140  OD1       48.0690   32.8940   16.0450 O.co2 171  ASP171     -0.2456
    141  OD2       45.9830   33.4770   15.6120 O.co2 171  ASP171     -0.2456
@<TRIPOS>BOND
     1    64    63    1
     2    64    65    1
     3    64    67    1
     4    70    72   ar
     5    70    68   ar
     6    74    75    1
     7    74    73    1
     8    74    77    1
     9    57    56    2
    10    65    66    2
    11    67    68    1
    12    75    76    2
    13    72    71   ar
    14    77    78    1
    15    68    69   ar
    16    56    55    1
    17    54    55    1
    18    71    69   ar
    19    78    79   ar
    20    78    80   ar
    21    38    37    2
    22    55    58    1
    23    58    59    1
    24    35    36    1
    25    48    47    2
    26    27    26    2
    27    79    81   ar
    28    80    82   ar
    29    37    36    1
    30    47    46    1
    31    60    59    1
    32    60    61    1
    33    36    39    1
    34    26    25    1
    35    24    25    1
    36    62    61    1
    37    81    83   ar
    38    82    83   ar
    39    45    46    1
    40   137   136    2
    41    46    49    1
    42    25    28    1
    43    39    40    1
    44    88    85    1
    45    88    89    1
    46    40    42   ar
    47    40    41   ar
    48    49    50    1
    49    42    44   ar
    50    28    29    1
    51   136   135    1
    52    85    84    1
    53    85    86    1
    54    89    90   ar
    55    89    91   ar
    56    90    92   ar
    57   138   135    1
    58   138   139    1
    59    41    43   ar
    60   141   139   ar
    61    44    43   ar
    62   135   134    1
    63   139   140   ar
    64    29    30    1
    65    91    93   ar
    66    86    87    2
    67    92    94   ar
    68    50    51    1
    69    93    94   ar
    70    52    51    2
    71    94    95    1
    72   128   127    2
    73    30    31    1
    74    51    53   am
    75   134   127   am
    76   112   113    2
    77   112   111    1
    78   127   126    1
    79    31    32    2
    80    23    22    1
    81   122   121    2
    82   111   110    1
    83   111   114    1
    84   119   120    1
    85   124   123    1
    86    21    20    2
    87    13    12    2
    88     4     3    2
    89   114   115    1
    90   121   120    1
    91    32    34    1
    92    32    33    1
    93   126   129    1
    94   126   125    1
    95   120   123    1
    96   115   116    1
    97    22    19    1
    98    17    15   am
    99    20    19    1
   100   129   130    1
   101    18    19    1
   102   133   132    1
   103    14    15    1
   104    14    11    1
   105    12    11    1
   106    10    11    1
   107   118   116   ar
   108     3     2    1
   109   116   117   ar
   110     1     2    1
   111    15    16    2
   112   132   131    1
   113     2     5    1
   114   130   131    1
   115     5     6    1
   116    96    97    1
   117    97    98    1
   118    97   100    1
   119   102   104   ar
   120   102   101   ar
   121     6     7    1
   122     8     7    2
   123     7     9   am
   124    98    99    2
   125   104   105   ar
   126   100   101    1
   127   101   103   ar
   128   105   103   ar
   129   105   107   ar
   130   103   106   ar
   131   107   109   ar
   132   106   108   ar
   133   109   108   ar
