@<TRIPOS>MOLECULE
tmp/2ixlC00.pdb
 168 163 0 0 0
SMALL
GASTEIGER

@<TRIPOS>ATOM
      1  N         20.7960   29.0300   34.9940 N.3    61  GLN61      -0.1245
      2  CA        21.1660   30.4350   34.8120 C.3    61  GLN61       0.1566
      3  C         20.1930   31.3080   35.6020 C.2    61  GLN61       0.2260
      4  O         18.9850   31.0460   35.6210 O.2    61  GLN61      -0.2867
      5  CB        21.1360   30.7950   33.3170 C.3    61  GLN61       0.0367
      6  CG        21.4140   32.2600   32.9680 C.3    61  GLN61       0.0905
      7  CD        21.5070   32.5000   31.4590 C.2    61  GLN61       0.2608
      8  OE1       21.8770   31.6040   30.6960 O.2    61  GLN61      -0.2717
      9  NE2       21.1820   33.7170   31.0260 N.am   61  GLN61      -0.0878
     10  N         19.0200   35.2740   35.9210 N.3    63  ASN63      -0.1240
     11  CA        19.0460   36.6270   35.3220 C.3    63  ASN63       0.1653
     12  C         18.3840   37.6490   36.2430 C.2    63  ASN63       0.2266
     13  O         17.4580   37.3120   36.9870 O.2    63  ASN63      -0.2867
     14  CB        18.3050   36.6570   33.9770 C.3    63  ASN63       0.1155
     15  CG        18.9130   35.7290   32.9550 C.2    63  ASN63       0.2627
     16  OD1       20.1310   35.5590   32.9030 O.2    63  ASN63      -0.2716
     17  ND2       18.0570   35.1240   32.1150 N.am   63  ASN63      -0.0877
     18  N          7.9150   45.4520   29.4170 N.3    73  ARG73      -0.1245
     19  CA         8.7150   44.5090   28.6310 C.3    73  ARG73       0.1563
     20  C          7.8480   43.3070   28.2430 C.2    73  ARG73       0.2260
     21  O          7.1200   42.7790   29.0920 O.2    73  ARG73      -0.2867
     22  CB         9.9460   44.0500   29.4360 C.3    73  ARG73       0.0307
     23  CG        10.8760   45.1860   29.9560 C.3    73  ARG73       0.0489
     24  CD        12.1450   44.6200   30.6360 C.3    73  ARG73       0.2205
     25  NE        12.8960   45.6070   31.4390 N.pl3  73  ARG73      -0.0865
     26  CZ        14.1290   46.0520   31.1640 C.cat  73  ARG73       0.5346
     27  NH1       14.7920   45.6080   30.0980 N.pl3  73  ARG73       0.1354
     28  NH2       14.7190   46.9410   31.9600 N.pl3  73  ARG73       0.1354
     29  N          7.1680   37.7840   25.2760 N.3    76  HIS76      -0.1241
     30  CA         8.1630   36.9010   24.6600 C.3    76  HIS76       0.1621
     31  C          8.0750   35.4630   25.1630 C.2    76  HIS76       0.2264
     32  O          8.1140   35.2310   26.3850 O.2    76  HIS76      -0.2867
     33  CB         9.5860   37.4130   24.9530 C.3    76  HIS76       0.0745
     34  CG         9.7920   38.8910   24.7500 C.ar   76  HIS76       0.0817
     35  ND1       10.7540   39.5940   25.4430 N.ar   76  HIS76      -0.2268
     36  CD2        9.1820   39.7910   23.9440 C.ar   76  HIS76       0.1154
     37  CE1       10.7340   40.8600   25.0690 C.ar   76  HIS76       0.1986
     38  NE2        9.7830   41.0080   24.1690 N.ar   76  HIS76      -0.2212
     39  N         10.2610   32.4700   25.1380 N.3    78  GLU78      -0.1245
     40  CA        11.5960   31.9160   24.8940 C.3    78  GLU78       0.1567
     41  C         11.6140   30.3730   24.9860 C.2    78  GLU78       0.2260
     42  O         10.7490   29.7780   25.6270 O.2    78  GLU78      -0.2867
     43  CB        12.6160   32.5670   25.8410 C.3    78  GLU78       0.0388
     44  CG        12.6790   34.1020   25.7030 C.3    78  GLU78       0.1160
     45  CD        13.7030   34.7660   26.6050 C.2    78  GLU78       0.3649
     46  OE1       13.7160   34.4890   27.8220 O.co2  78  GLU78      -0.2457
     47  OE2       14.4890   35.5970   26.0990 O.co2  78  GLU78      -0.2457
     48  N         12.7430   27.9820   26.7000 N.3    80  TRP80      -0.1241
     49  CA        13.1310   27.3540   27.9630 C.3    80  TRP80       0.1605
     50  C         12.0830   27.6880   29.0200 C.2    80  TRP80       0.2264
     51  O         11.2390   28.5620   28.7900 O.2    80  TRP80      -0.2867
     52  CB        14.5300   27.8030   28.4210 C.3    80  TRP80       0.0550
     53  CG        14.8010   29.2980   28.3020 C.ar   80  TRP80       0.0003
     54  CD1       14.3440   30.2950   29.1290 C.ar   80  TRP80       0.0946
     55  CD2       15.5990   29.9450   27.2990 C.ar   80  TRP80       0.0152
     56  NE1       14.8120   31.5210   28.6990 N.ar   80  TRP80      -0.2442
     57  CE2       15.5830   31.3330   27.5760 C.ar   80  TRP80       0.0810
     58  CE3       16.3220   29.4810   26.1830 C.ar   80  TRP80       0.0012
     59  CZ2       16.2750   32.2710   26.7800 C.ar   80  TRP80       0.0191
     60  CZ3       17.0010   30.4140   25.3780 C.ar   80  TRP80       0.0001
     61  CH2       16.9710   31.7910   25.6850 C.ar   80  TRP80       0.0015
     62  N         10.8760   29.0870   32.8790 N.3    82  LYS82      -0.1245
     63  CA        11.2360   30.2590   33.7060 C.3    82  LYS82       0.1561
     64  C         10.5710   30.1960   35.0740 C.2    82  LYS82       0.2260
     65  O          9.4120   29.8130   35.1810 O.2    82  LYS82      -0.2867
     66  CB        10.7990   31.5730   33.0390 C.3    82  LYS82       0.0271
     67  CG        11.5150   31.9040   31.7560 C.3    82  LYS82       0.0035
     68  CD        10.9250   33.1670   31.1680 C.3    82  LYS82       0.0206
     69  CE        11.7360   33.6080   29.9840 C.3    82  LYS82       0.1093
     70  NZ        11.0350   34.6730   29.2050 N.3    82  LYS82      -0.1314
     71  N          5.8070   35.7170   28.0900 N.3   127  ASN127     -0.1225
     72  CA         5.9720   36.3790   29.3800 C.3   127  ASN127      0.1785
     73  C          6.1930   37.8940   29.2040 C.2   127  ASN127      0.2598
     74  O          6.8830   38.3160   28.2790 O.2   127  ASN127     -0.2718
     75  CB         7.1780   35.7610   30.1110 C.3   127  ASN127      0.1169
     76  CG         7.4450   36.4040   31.4670 C.2   127  ASN127      0.2627
     77  OD1        6.6570   36.2580   32.4100 O.2   127  ASN127     -0.2716
     78  ND2        8.5720   37.1060   31.5760 N.am  127  ASN127     -0.0877
     79  N          5.6000   38.6970   30.0830 N.am  128  GLY128     -0.1942
     80  CA         5.7740   40.1550   30.0430 C.3   128  GLY128      0.2014
     81  C          5.4440   40.7850   31.3880 C.2   128  GLY128      0.2638
     82  O          4.8820   40.1330   32.2740 O.2   128  GLY128     -0.2714
     83  N          5.7930   42.0590   31.5490 N.am  129  PHE129     -0.1973
     84  CA         5.3980   42.7960   32.7540 C.3   129  PHE129      0.1639
     85  C          5.4330   44.2970   32.5630 C.2   129  PHE129      0.2290
     86  O          6.1180   44.7900   31.6750 O.2   129  PHE129     -0.2864
     87  CB         6.2630   42.4150   33.9660 C.3   129  PHE129      0.0560
     88  CG         7.7200   42.7830   33.8430 C.ar  129  PHE129     -0.0200
     89  CD1        8.1800   44.0100   34.3040 C.ar  129  PHE129     -0.0042
     90  CD2        8.6450   41.8610   33.3320 C.ar  129  PHE129     -0.0042
     91  CE1        9.5370   44.3380   34.2270 C.ar  129  PHE129     -0.0003
     92  CE2       10.0050   42.1660   33.2510 C.ar  129  PHE129     -0.0003
     93  CZ        10.4620   43.4080   33.7000 C.ar  129  PHE129     -0.0000
     94  N         13.7010   42.3800   39.1460 N.3   138  TYR138     -0.1241
     95  CA        12.9390   41.2300   38.6520 C.3   138  TYR138      0.1605
     96  C         13.9630   40.1130   38.4240 C.2   138  TYR138      0.2264
     97  O         14.8230   40.2290   37.5550 O.2   138  TYR138     -0.2867
     98  CB        12.2610   41.6730   37.3460 C.3   138  TYR138      0.0534
     99  CG        11.3730   40.7110   36.6010 C.ar  138  TYR138     -0.0201
    100  CD1        9.9890   40.7150   36.8010 C.ar  138  TYR138     -0.0009
    101  CD2       11.8980   39.8570   35.6210 C.ar  138  TYR138     -0.0009
    102  CE1        9.1320   39.8630   36.0720 C.ar  138  TYR138      0.0417
    103  CE2       11.0530   38.9890   34.8920 C.ar  138  TYR138      0.0417
    104  CZ         9.6740   39.0130   35.1090 C.ar  138  TYR138      0.1957
    105  OH         8.8430   38.1690   34.3840 O.3   138  TYR138     -0.2866
    106  N         14.9980   35.9640   37.9170 N.3   140  TYR140     -0.1241
    107  CA        14.4410   34.7080   37.4520 C.3   140  TYR140      0.1605
    108  C         15.4800   33.6230   37.1810 C.2   140  TYR140      0.2264
    109  O         16.6470   33.9140   36.9230 O.2   140  TYR140     -0.2867
    110  CB        13.4550   34.9330   36.2950 C.3   140  TYR140      0.0534
    111  CG        14.0030   35.5220   35.0090 C.ar  140  TYR140     -0.0201
    112  CD1       14.2610   34.7060   33.9210 C.ar  140  TYR140     -0.0009
    113  CD2       14.2230   36.8930   34.8760 C.ar  140  TYR140     -0.0009
    114  CE1       14.7320   35.2230   32.7320 C.ar  140  TYR140      0.0417
    115  CE2       14.6980   37.4320   33.6850 C.ar  140  TYR140      0.0417
    116  CZ        14.9490   36.5800   32.6120 C.ar  140  TYR140      0.1957
    117  OH        15.4350   37.0660   31.4160 O.3   140  TYR140     -0.2866
    118  N         21.4520   31.0810   26.4000 N.3   146  TRP146     -0.1241
    119  CA        21.2440   31.8310   25.1490 C.3   146  TRP146      0.1605
    120  C         22.1320   31.2880   24.0300 C.2   146  TRP146      0.2264
    121  O         23.3400   31.0560   24.2200 O.2   146  TRP146     -0.2867
    122  CB        21.4810   33.3350   25.3490 C.3   146  TRP146      0.0550
    123  CG        21.0470   34.1580   24.1620 C.ar  146  TRP146      0.0003
    124  CD1       19.8200   34.7600   23.9850 C.ar  146  TRP146      0.0946
    125  CD2       21.8180   34.4690   22.9900 C.ar  146  TRP146      0.0152
    126  NE1       19.7880   35.4100   22.7740 N.ar  146  TRP146     -0.2442
    127  CE2       20.9920   35.2500   22.1420 C.ar  146  TRP146      0.0810
    128  CE3       23.1190   34.1580   22.5660 C.ar  146  TRP146      0.0012
    129  CZ2       21.4310   35.7360   20.9040 C.ar  146  TRP146      0.0191
    130  CZ3       23.5550   34.6440   21.3210 C.ar  146  TRP146      0.0001
    131  CH2       22.7060   35.4220   20.5110 C.ar  146  TRP146      0.0015
    132  N         17.2410   30.5480   18.3940 N.3   151  LYS151     -0.1245
    133  CA        16.4160   31.6850   17.9490 C.3   151  LYS151      0.1561
    134  C         15.1670   31.2970   17.1350 C.2   151  LYS151      0.2260
    135  O         14.1160   31.9110   17.3230 O.2   151  LYS151     -0.2867
    136  CB        17.2450   32.7680   17.2250 C.3   151  LYS151      0.0271
    137  CG        18.0980   33.6620   18.1540 C.3   151  LYS151      0.0035
    138  CD        17.2880   34.4690   19.1840 C.3   151  LYS151      0.0206
    139  CE        16.5380   35.6460   18.5700 C.3   151  LYS151      0.1093
    140  NZ        15.8520   36.4740   19.6080 N.3   151  LYS151     -0.1314
    141  N         11.8560   30.6940   19.2490 N.3   154  TYR154     -0.1241
    142  CA        11.1530   31.7590   19.9610 C.3   154  TYR154      0.1605
    143  C          9.8280   32.0700   19.2640 C.2   154  TYR154      0.2264
    144  O          9.6850   31.8530   18.0550 O.2   154  TYR154     -0.2867
    145  CB        11.9550   33.0710   19.9330 C.3   154  TYR154      0.0534
    146  CG        13.2120   33.2150   20.7850 C.ar  154  TYR154     -0.0201
    147  CD1       14.2710   32.3110   20.6890 C.ar  154  TYR154     -0.0009
    148  CD2       13.3720   34.3300   21.6120 C.ar  154  TYR154     -0.0009
    149  CE1       15.4400   32.4900   21.4410 C.ar  154  TYR154      0.0417
    150  CE2       14.5360   34.5250   22.3620 C.ar  154  TYR154      0.0417
    151  CZ        15.5660   33.6060   22.2660 C.ar  154  TYR154      0.1957
    152  OH        16.7150   33.8030   23.0040 O.3   154  TYR154     -0.2866
    153  N          6.8940   35.5920   19.6370 N.3   156  PHE156     -0.1241
    154  CA         6.5960   36.8870   20.2640 C.3   156  PHE156      0.1605
    155  C          5.2100   37.3650   19.8580 C.2   156  PHE156      0.2264
    156  O          4.7220   37.0360   18.7770 O.2   156  PHE156     -0.2867
    157  CB         7.5870   37.9770   19.8280 C.3   156  PHE156      0.0534
    158  CG         9.0240   37.5710   19.8930 C.ar  156  PHE156     -0.0203
    159  CD1        9.6210   36.9200   18.8070 C.ar  156  PHE156     -0.0042
    160  CD2        9.7940   37.8690   21.0150 C.ar  156  PHE156     -0.0042
    161  CE1       10.9530   36.5480   18.8530 C.ar  156  PHE156     -0.0003
    162  CE2       11.1410   37.5020   21.0660 C.ar  156  PHE156     -0.0003
    163  CZ        11.7110   36.8390   19.9800 C.ar  156  PHE156     -0.0000
    164  N         12.2110   47.1980   19.6420 N.3   179  ALA179     -0.1245
    165  CA        11.9200   45.8040   19.2880 C.3   179  ALA179      0.1562
    166  C         10.5040   45.3820   19.7170 C.2   179  ALA179      0.2260
    167  O          9.7560   44.8010   18.9210 O.2   179  ALA179     -0.2867
    168  CB        12.9590   44.8790   19.8890 C.3   179  ALA179      0.0290
@<TRIPOS>BOND
     1   134   135    2
     2   134   133    1
     3   136   133    1
     4   136   137    1
     5   133   132    1
     6   144   143    2
     7   137   138    1
     8   139   138    1
     9   139   140    1
    10   156   155    2
    11   159   161   ar
    12   159   158   ar
    13   161   163   ar
    14   167   166    2
    15   141   142    1
    16   143   142    1
    17   165   164    1
    18   165   166    1
    19   165   168    1
    20   153   154    1
    21   157   158    1
    22   157   154    1
    23   155   154    1
    24   158   160   ar
    25   145   142    1
    26   145   146    1
    27   163   162   ar
    28   131   129   ar
    29   131   130   ar
    30   147   146   ar
    31   147   149   ar
    32   146   148   ar
    33   129   127   ar
    34   160   162   ar
    35   130   128   ar
    36   149   151   ar
    37   148   150   ar
    38   127   126   ar
    39   127   125   ar
    40   151   150   ar
    41   151   152    1
    42   128   125   ar
    43   126   124   ar
    44   125   123   ar
    45    36    38   ar
    46    36    34   ar
    47   124   123   ar
    48   120   121    2
    49   120   119    1
    50   123   122    1
    51    38    37   ar
    52    30    33    1
    53    30    31    1
    54    30    29    1
    55    34    33    1
    56    34    35   ar
    57    40    41    1
    58    40    39    1
    59    40    43    1
    60    41    42    2
    61    37    35   ar
    62   119   122    1
    63   119   118    1
    64    31    32    2
    65    60    61   ar
    66    60    58   ar
    67    61    59   ar
    68    44    43    1
    69    44    45    1
    70    47    45   ar
    71    58    55   ar
    72    45    46   ar
    73    48    49    1
    74    59    57   ar
    75    55    57   ar
    76    55    53   ar
    77    57    56   ar
    78    49    52    1
    79    49    50    1
    80    71    72    1
    81    20    19    1
    82    20    21    2
    83    74    73    2
    84    53    52    1
    85    53    54   ar
    86    19    18    1
    87    19    22    1
    88    56    54   ar
    89    51    50    2
    90    73    72    1
    91    73    79   am
    92    70    69    1
    93    72    75    1
    94    22    23    1
    95    23    24    1
    96    69    68    1
    97    80    79    1
    98    80    81    1
    99    27    26    1
   100    75    76    1
   101    24    25    1
   102     8     7    2
   103     9     7   am
   104    26    25    2
   105    26    28    1
   106    68    67    1
   107    81    83   am
   108    81    82    2
   109   117   116    1
   110     7     6    1
   111    76    78   am
   112    76    77    2
   113    83    84    1
   114    86    85    2
   115    67    66    1
   116    17    15   am
   117    85    84    1
   118   116   114   ar
   119   116   115   ar
   120   114   112   ar
   121    84    87    1
   122    62    63    1
   123    16    15    2
   124    15    14    1
   125     6     5    1
   126    66    63    1
   127    92    90   ar
   128    92    93   ar
   129     5     2    1
   130    90    88   ar
   131   115   113   ar
   132    93    91   ar
   133    63    64    1
   134    88    87    1
   135    88    89   ar
   136   112   111   ar
   137    14    11    1
   138    91    89   ar
   139   105   104    1
   140     2     1    1
   141     2     3    1
   142   113   111   ar
   143   103   104   ar
   144   103   101   ar
   145   111   110    1
   146    64    65    2
   147   104   102   ar
   148    11    10    1
   149    11    12    1
   150     3     4    2
   151   101    99   ar
   152   102   100   ar
   153    12    13    2
   154   110   107    1
   155    99   100   ar
   156    99    98    1
   157   109   108    2
   158   108   107    1
   159    98    95    1
   160   107   106    1
   161    97    96    2
   162    96    95    1
   163    95    94    1
