@<TRIPOS>MOLECULE
tmp/2ixpC00.pdb
 102 98 0 0 0
SMALL
GASTEIGER

@<TRIPOS>ATOM
      1  N        -11.8900  -14.7310  -16.4820 N.3   200  VAL200     -0.1231
      2  CA       -12.4250  -13.8030  -17.4440 C.3   200  VAL200      0.1692
      3  C        -11.4460  -12.6260  -17.8170 C.2   200  VAL200      0.2592
      4  O        -11.8210  -11.6470  -18.4500 O.2   200  VAL200     -0.2718
      5  CB       -13.7250  -13.2860  -16.7600 C.3   200  VAL200      0.0266
      6  CG1      -13.5380  -11.9140  -16.0790 C.3   200  VAL200      0.0020
      7  CG2      -14.8770  -13.3240  -17.6800 C.3   200  VAL200      0.0020
      8  N        -10.1920  -12.7090  -17.3890 N.am  201  TRP201     -0.1976
      9  CA        -9.2520  -11.6420  -17.6150 C.3   201  TRP201      0.1640
     10  C         -8.1320  -12.3080  -18.2840 C.2   201  TRP201      0.2290
     11  O         -7.0310  -11.8140  -18.2420 O.2   201  TRP201     -0.2864
     12  CB        -8.7120  -11.1120  -16.3090 C.3   201  TRP201      0.0576
     13  CG        -9.7040  -10.3830  -15.5420 C.ar  201  TRP201      0.0006
     14  CD1      -10.5240  -10.8810  -14.5640 C.ar  201  TRP201      0.0946
     15  CD2      -10.0200   -8.9960  -15.6670 C.ar  201  TRP201      0.0152
     16  NE1      -11.3440   -9.8750  -14.0680 N.ar  201  TRP201     -0.2442
     17  CE2      -11.0530   -8.7110  -14.7280 C.ar  201  TRP201      0.0810
     18  CE3       -9.5470   -7.9710  -16.4850 C.ar  201  TRP201      0.0012
     19  CZ2      -11.6080   -7.4490  -14.5910 C.ar  201  TRP201      0.0191
     20  CZ3      -10.1130   -6.7090  -16.3530 C.ar  201  TRP201      0.0001
     21  CH2      -11.1280   -6.4600  -15.4040 C.ar  201  TRP201      0.0015
     22  N        -14.5490  -12.3460  -22.6230 N.3   267  PRO267     -0.2102
     23  CA       -14.4570  -10.9700  -23.0370 C.3   267  PRO267      0.1504
     24  C        -13.2080  -10.6100  -23.8480 C.2   267  PRO267      0.2575
     25  O        -13.3340   -9.8580  -24.7460 O.2   267  PRO267     -0.2718
     26  CB       -14.5570  -10.1880  -21.7300 C.3   267  PRO267      0.0282
     27  CG       -14.3400  -11.1310  -20.7310 C.3   267  PRO267      0.0208
     28  CD       -14.7360  -12.4610  -21.1880 C.3   267  PRO267      0.0893
     29  N        -12.0270  -11.1180  -23.5740 N.am  268  ILE268     -0.1980
     30  CA       -10.8860  -10.7380  -24.3940 C.3   268  ILE268      0.1595
     31  C        -11.0310  -11.2260  -25.8410 C.2   268  ILE268      0.2287
     32  O        -11.0430  -10.4150  -26.7880 O.2   268  ILE268     -0.2864
     33  CB        -9.5780  -11.2740  -23.7730 C.3   268  ILE268      0.0276
     34  CG1       -9.1760  -10.3810  -22.6060 C.3   268  ILE268      0.0022
     35  CG2       -8.4110  -11.3590  -24.8030 C.3   268  ILE268      0.0022
     36  CD1       -8.5900  -11.1770  -21.5110 C.3   268  ILE268      0.0001
     37  N        -13.3800   -8.8070  -27.5290 N.3   271  ASP271     -0.1225
     38  CA       -12.7020   -7.5920  -27.9170 C.3   271  ASP271      0.1805
     39  C        -11.7810   -7.7510  -29.1240 C.2   271  ASP271      0.2597
     40  O        -11.7240   -6.8650  -29.9830 O.2   271  ASP271     -0.2718
     41  CB       -11.8350   -7.1050  -26.7810 C.3   271  ASP271      0.1424
     42  CG       -11.7280   -5.6060  -26.7600 C.2   271  ASP271      0.3668
     43  OD1      -10.6040   -5.0960  -27.0140 O.co2 271  ASP271     -0.2456
     44  OD2      -12.7890   -4.9390  -26.4970 O.co2 271  ASP271     -0.2456
     45  N        -11.0250   -8.8520  -29.1730 N.am  272  ILE272     -0.1980
     46  CA       -10.1630   -9.0980  -30.3120 C.3   272  ILE272      0.1595
     47  C        -11.0030   -9.1720  -31.6080 C.2   272  ILE272      0.2287
     48  O        -10.6670   -8.6080  -32.6340 O.2   272  ILE272     -0.2864
     49  CB        -9.3630  -10.3880  -30.0920 C.3   272  ILE272      0.0276
     50  CG1       -8.4360  -10.2310  -28.8660 C.3   272  ILE272      0.0022
     51  CG2       -8.6070  -10.7490  -31.3380 C.3   272  ILE272      0.0022
     52  CD1       -7.1790  -11.2180  -28.8210 C.3   272  ILE272      0.0001
     53  N        -12.2470   -5.6860  -32.6900 N.3   275  THR275     -0.1203
     54  CA       -11.3260   -4.5710  -32.4690 C.3   275  THR275      0.1994
     55  C        -10.0690   -4.6450  -33.3000 C.2   275  THR275      0.2617
     56  O         -9.5110   -3.6130  -33.6840 O.2   275  THR275     -0.2717
     57  CB       -11.0350   -4.4990  -30.9420 C.3   275  THR275      0.1784
     58  OG1      -12.0320   -3.6660  -30.3740 O.3   275  THR275     -0.2211
     59  CG2       -9.5530   -4.0840  -30.4820 C.3   275  THR275      0.0376
     60  N         -9.5950   -5.8680  -33.5490 N.am  276  VAL276     -0.1979
     61  CA        -8.4240   -6.0860  -34.4290 C.3   276  VAL276      0.1595
     62  C         -8.9210   -6.3010  -35.8720 C.2   276  VAL276      0.2287
     63  O         -9.6700   -7.2470  -36.1740 O.2   276  VAL276     -0.2864
     64  CB        -7.4590   -7.1720  -33.9130 C.3   276  VAL276      0.0276
     65  CG1       -6.2880   -7.3220  -34.8150 C.3   276  VAL276      0.0022
     66  CG2       -6.9590   -6.7350  -32.6310 C.3   276  VAL276      0.0022
     67  N         -2.4240   -8.7420  -37.4100 N.3   281  LYS281     -0.1231
     68  CA        -2.4730   -7.9960  -36.1280 C.3   281  LYS281      0.1693
     69  C         -2.7110   -8.8870  -34.8810 C.2   281  LYS281      0.2591
     70  O         -1.9850   -8.8180  -33.8870 O.2   281  LYS281     -0.2718
     71  CB        -3.5520   -6.9020  -36.1700 C.3   281  LYS281      0.0285
     72  CG        -3.0610   -5.4740  -36.0370 C.3   281  LYS281      0.0035
     73  CD        -2.4290   -4.9750  -37.3260 C.3   281  LYS281      0.0206
     74  CE        -0.9440   -5.3150  -37.4600 C.3   281  LYS281      0.1093
     75  NZ        -0.2290   -4.1480  -38.0030 N.3   281  LYS281     -0.1314
     76  N         -3.7440   -9.7080  -34.9540 N.am  282  VAL282     -0.1980
     77  CA        -4.0700  -10.6290  -33.8940 C.3   282  VAL282      0.1595
     78  C         -2.8480  -11.4430  -33.4850 C.2   282  VAL282      0.2287
     79  O         -2.4190  -11.4200  -32.2960 O.2   282  VAL282     -0.2864
     80  CB        -5.1560  -11.5820  -34.3630 C.3   282  VAL282      0.0276
     81  CG1       -5.2850  -12.7600  -33.3910 C.3   282  VAL282      0.0022
     82  CG2       -6.4610  -10.7970  -34.5670 C.3   282  VAL282      0.0022
     83  N         -0.0690   -9.1670  -31.9040 N.3   285  GLY285     -0.1210
     84  CA        -0.6950   -9.0410  -30.5850 C.3   285  GLY285      0.1956
     85  C         -0.8120  -10.2870  -29.7120 C.2   285  GLY285      0.2611
     86  O         -0.5120  -10.2350  -28.5150 O.2   285  GLY285     -0.2717
     87  N         -1.2330  -11.4180  -30.2580 N.am  286  LEU286     -0.1979
     88  CA        -1.2400  -12.6250  -29.4160 C.3   286  LEU286      0.1596
     89  C          0.1350  -13.1770  -29.0190 C.2   286  LEU286      0.2287
     90  O          0.2600  -13.6670  -27.9200 O.2   286  LEU286     -0.2864
     91  CB        -2.1280  -13.7070  -29.9990 C.3   286  LEU286      0.0297
     92  CG        -3.5960  -13.3310  -29.9100 C.3   286  LEU286      0.0022
     93  CD1       -4.3880  -14.4480  -30.5310 C.3   286  LEU286      0.0001
     94  CD2       -3.9830  -13.0910  -28.4400 C.3   286  LEU286      0.0001
     95  N          1.2400  -10.9090  -26.3060 N.3   289  MET289     -0.1245
     96  CA         0.5670  -11.3510  -25.1390 C.3   289  MET289      0.1570
     97  C          1.2990  -12.5690  -24.5520 C.2   289  MET289      0.2261
     98  O          1.8760  -12.4270  -23.4960 O.2   289  MET289     -0.2867
     99  CB        -0.8680  -11.6240  -25.4000 C.3   289  MET289      0.0387
    100  CG        -1.6190  -11.7020  -24.1290 C.3   289  MET289      0.0595
    101  SD        -3.3620  -11.5990  -24.6110 S.3   289  MET289     -0.1393
    102  CE        -3.8560  -13.2810  -24.2800 C.3   289  MET289      0.0692
@<TRIPOS>BOND
     1    75    74    1
     2    74    73    1
     3    67    68    1
     4    73    72    1
     5    63    62    2
     6    71    68    1
     7    71    72    1
     8    68    69    1
     9    62    61    1
    10    76    69   am
    11    76    77    1
    12    69    70    2
    13    65    64    1
    14    82    80    1
    15    61    64    1
    16    61    60    1
    17    80    77    1
    18    80    81    1
    19    64    66    1
    20    77    78    1
    21    56    55    2
    22    60    55   am
    23    78    79    2
    24    55    54    1
    25    53    54    1
    26    48    47    2
    27    54    57    1
    28    83    84    1
    29    47    46    1
    30    51    49    1
    31    57    59    1
    32    57    58    1
    33    84    85    1
    34    93    92    1
    35    46    49    1
    36    46    45    1
    37    87    85   am
    38    87    88    1
    39    49    50    1
    40    91    92    1
    41    91    88    1
    42    40    39    2
    43    92    94    1
    44    85    86    2
    45    88    89    1
    46    45    39   am
    47    39    38    1
    48    89    90    2
    49    50    52    1
    50    38    37    1
    51    38    41    1
    52    43    42   ar
    53    32    31    2
    54    41    42    1
    55    42    44   ar
    56    95    96    1
    57    31    30    1
    58    99    96    1
    59    99   100    1
    60    96    97    1
    61    35    33    1
    62    25    24    2
    63   101   102    1
    64   101   100    1
    65    97    98    2
    66    30    33    1
    67    30    29    1
    68    24    29   am
    69    24    23    1
    70    33    34    1
    71    23    22    1
    72    23    26    1
    73    22    28    1
    74    34    36    1
    75    26    27    1
    76    28    27    1
    77     4     3    2
    78    10    11    2
    79    10     9    1
    80     3     2    1
    81     3     8   am
    82     7     5    1
    83     9     8    1
    84     9    12    1
    85     2     5    1
    86     2     1    1
    87     5     6    1
    88    18    20   ar
    89    18    15   ar
    90    20    21   ar
    91    12    13    1
    92    15    13   ar
    93    15    17   ar
    94    13    14   ar
    95    21    19   ar
    96    17    19   ar
    97    17    16   ar
    98    14    16   ar
