@<TRIPOS>MOLECULE
tmp/2ixsB00.pdb
 121 116 0 0 0
SMALL
GASTEIGER

@<TRIPOS>ATOM
      1  N         36.4780   71.7530   60.2340 N.3    14  ARG14      -0.1231
      2  CA        37.5080   72.7520   59.9440 C.3    14  ARG14       0.1694
      3  C         36.9150   74.1420   59.7320 C.2    14  ARG14       0.2591
      4  O         37.4540   75.1330   60.2200 O.2    14  ARG14      -0.2718
      5  CB        38.3390   72.3620   58.7190 C.3    14  ARG14       0.0321
      6  CG        39.0840   71.0550   58.8540 C.3    14  ARG14       0.0489
      7  CD        40.0380   70.7500   57.6940 C.3    14  ARG14       0.2205
      8  NE        41.1160   71.7200   57.5970 N.pl3  14  ARG14      -0.0865
      9  CZ        42.0790   71.6730   56.6950 C.cat  14  ARG14       0.5346
     10  NH1       42.0810   70.7130   55.7960 N.pl3  14  ARG14       0.1354
     11  NH2       43.0420   72.5880   56.6990 N.pl3  14  ARG14       0.1354
     12  N         35.8040   74.2260   59.0050 N.am   15  ALA15      -0.1980
     13  CA        35.1430   75.5190   58.8040 C.3    15  ALA15       0.1597
     14  C         34.6350   76.1340   60.1060 C.2    15  ALA15       0.2287
     15  O         34.7330   77.3530   60.3370 O.2    15  ALA15      -0.2864
     16  CB        33.9850   75.3620   57.7920 C.3    15  ALA15       0.0319
     17  N         37.6100   77.4650   62.1190 N.3    18  LYS18      -0.1231
     18  CA        38.0550   78.7260   61.5400 C.3    18  LYS18       0.1693
     19  C         37.0920   79.8280   61.9150 C.2    18  LYS18       0.2592
     20  O         37.5060   80.9390   62.2410 O.2    18  LYS18      -0.2718
     21  CB        38.2290   78.6020   60.0240 C.3    18  LYS18       0.0285
     22  CG        38.5450   79.9320   59.3280 C.3    18  LYS18       0.0035
     23  CD        38.9560   79.7250   57.8890 C.3    18  LYS18       0.0206
     24  CE        39.3550   81.0640   57.2510 C.3    18  LYS18       0.1093
     25  NZ        39.6350   80.9080   55.8070 N.3    18  LYS18      -0.1314
     26  N         35.7950   79.5150   61.8950 N.am   19  SER19      -0.1952
     27  CA        34.7590   80.4740   62.2470 C.3    19  SER19       0.1924
     28  C         34.8590   81.0190   63.6730 C.2    19  SER19       0.2314
     29  O         34.4970   82.1770   63.9250 O.2    19  SER19      -0.2863
     30  CB        33.3770   79.8400   62.0080 C.3    19  SER19       0.2116
     31  OG        32.3570   80.8050   62.0010 O.3    19  SER19      -0.2180
     32  N         25.8870   75.4890   65.2310 N.3   125  TYR125     -0.1241
     33  CA        26.5290   75.6950   63.9410 C.3   125  TYR125      0.1605
     34  C         25.5760   75.3020   62.8080 C.2   125  TYR125      0.2264
     35  O         24.9610   74.2350   62.8420 O.2   125  TYR125     -0.2867
     36  CB        27.8530   74.9230   63.8000 C.3   125  TYR125      0.0534
     37  CG        28.7070   75.4310   62.6640 C.ar  125  TYR125     -0.0201
     38  CD1       29.4000   76.6180   62.7740 C.ar  125  TYR125     -0.0009
     39  CD2       28.8040   74.7370   61.4610 C.ar  125  TYR125     -0.0009
     40  CE1       30.1610   77.0930   61.7420 C.ar  125  TYR125      0.0417
     41  CE2       29.5770   75.2070   60.4390 C.ar  125  TYR125      0.0417
     42  CZ        30.2460   76.3980   60.5820 C.ar  125  TYR125      0.1957
     43  OH        31.0270   76.9010   59.5590 O.3   125  TYR125     -0.2866
     44  N         23.6430   80.6420   65.3050 N.3   130  PHE130     -0.1227
     45  CA        25.0870   80.4510   65.5290 C.3   130  PHE130      0.1736
     46  C         25.8510   81.7290   65.8810 C.2   130  PHE130      0.2595
     47  O         26.6010   81.7600   66.8600 O.2   130  PHE130     -0.2718
     48  CB        25.7830   79.8160   64.3380 C.3   130  PHE130      0.0547
     49  CG        27.2540   79.6660   64.5550 C.ar  130  PHE130     -0.0202
     50  CD1       27.7290   78.8600   65.5840 C.ar  130  PHE130     -0.0042
     51  CD2       28.1580   80.3870   63.8060 C.ar  130  PHE130     -0.0042
     52  CE1       29.0800   78.7450   65.8220 C.ar  130  PHE130     -0.0003
     53  CE2       29.5150   80.2680   64.0430 C.ar  130  PHE130     -0.0003
     54  CZ        29.9730   79.4620   65.0520 C.ar  130  PHE130     -0.0000
     55  N         25.6860   82.7800   65.0840 N.am  131  GLU131     -0.1979
     56  CA        26.4550   84.0090   65.3000 C.3   131  GLU131      0.1602
     57  C         26.2400   84.5990   66.6930 C.2   131  GLU131      0.2287
     58  O         27.1940   85.0670   67.3260 O.2   131  GLU131     -0.2864
     59  CB        26.1810   85.0460   64.2100 C.3   131  GLU131      0.0415
     60  CG        26.9270   84.7870   62.8990 C.3   131  GLU131      0.1163
     61  CD        28.4470   84.7950   63.0630 C.2   131  GLU131      0.3649
     62  OE1       28.9840   85.7470   63.6740 O.co2 131  GLU131     -0.2457
     63  OE2       29.1080   83.8460   62.5960 O.co2 131  GLU131     -0.2457
     64  N         38.1050   88.4290   61.3250 N.3   152  LEU152     -0.1231
     65  CA        37.6510   87.5730   60.2410 C.3   152  LEU152      0.1693
     66  C         36.3620   88.1370   59.6910 C.2   152  LEU152      0.2591
     67  O         36.1940   88.2670   58.4800 O.2   152  LEU152     -0.2718
     68  CB        37.3910   86.1450   60.7640 C.3   152  LEU152      0.0284
     69  CG        36.8190   85.1380   59.7600 C.3   152  LEU152      0.0019
     70  CD1       37.8400   84.8720   58.6730 C.3   152  LEU152      0.0001
     71  CD2       36.4720   83.8350   60.4490 C.3   152  LEU152      0.0001
     72  N         35.4630   88.4740   60.6050 N.am  153  ARG153     -0.1980
     73  CA        34.1300   88.9270   60.2710 C.3   153  ARG153      0.1597
     74  C         34.1330   90.3270   59.6360 C.2   153  ARG153      0.2287
     75  O         33.3360   90.6130   58.7380 O.2   153  ARG153     -0.2864
     76  CB        33.2450   88.8920   61.5240 C.3   153  ARG153      0.0334
     77  CG        32.7550   87.4710   61.8230 C.3   153  ARG153      0.0492
     78  CD        32.2140   87.1820   63.2200 C.3   153  ARG153      0.2205
     79  NE        31.6930   85.8120   63.2000 N.pl3 153  ARG153     -0.0865
     80  CZ        32.4610   84.7330   63.1540 C.cat 153  ARG153      0.5346
     81  NH1       33.7850   84.8580   63.1970 N.pl3 153  ARG153      0.1354
     82  NH2       31.9180   83.5250   63.0720 N.pl3 153  ARG153      0.1354
     83  N         34.7980   90.1000   55.8760 N.3   156  MET156     -0.1245
     84  CA        33.7690   89.4630   55.0600 C.3   156  MET156      0.1570
     85  C         32.6370   90.4540   54.8170 C.2   156  MET156      0.2261
     86  O         32.5800   91.5020   55.4500 O.2   156  MET156     -0.2867
     87  CB        33.2270   88.2190   55.7830 C.3   156  MET156      0.0387
     88  CG        34.2630   87.0940   55.8980 C.3   156  MET156      0.0595
     89  SD        33.6800   85.6200   56.7620 S.3   156  MET156     -0.1393
     90  CE        32.6650   86.3400   57.9860 C.3   156  MET156      0.0692
     91  N         27.1330   85.5220   56.4660 N.3   168  LEU168     -0.1245
     92  CA        28.4580   86.0600   56.1780 C.3   168  LEU168      0.1561
     93  C         29.1340   85.3870   54.9960 C.2   168  LEU168      0.2260
     94  O         29.2640   84.1690   54.9500 O.2   168  LEU168     -0.2867
     95  CB        29.3440   85.9360   57.4340 C.3   168  LEU168      0.0270
     96  CG        28.7680   86.6540   58.6560 C.3   168  LEU168      0.0019
     97  CD1       29.5480   86.3020   59.9120 C.3   168  LEU168      0.0001
     98  CD2       28.7410   88.1660   58.4490 C.3   168  LEU168      0.0001
     99  N         33.9090   79.7990   49.6350 N.3   203  GLY203     -0.1210
    100  CA        34.2390   79.0440   50.8350 C.3   203  GLY203      0.1956
    101  C         33.2070   77.9790   51.1850 C.2   203  GLY203      0.2612
    102  O         32.3050   77.6900   50.4010 O.2   203  GLY203     -0.2717
    103  N         33.3630   77.3650   52.3510 N.am  204  LYS204     -0.1965
    104  CA        32.4440   76.3170   52.7740 C.3   204  LYS204      0.1728
    105  C         31.5160   76.9150   53.7990 C.2   204  LYS204      0.2616
    106  O         31.7970   76.9010   55.0060 O.2   204  LYS204     -0.2715
    107  CB        33.1870   75.1240   53.3790 C.3   204  LYS204      0.0311
    108  CG        34.1350   74.4350   52.4130 C.3   204  LYS204      0.0038
    109  CD        34.3520   72.9760   52.7820 C.3   204  LYS204      0.0206
    110  CE        35.3630   72.3140   51.8580 C.3   204  LYS204      0.1093
    111  NZ        36.6320   71.9800   52.5630 N.3   204  LYS204     -0.1314
    112  N         30.4400   77.5150   53.3220 N.am  205  HIS205     -0.1973
    113  CA        29.4540   78.0280   54.2350 C.3   205  HIS205      0.1656
    114  C         28.1110   78.0330   53.5210 C.2   205  HIS205      0.2291
    115  O         27.9950   78.6180   52.4350 O.2   205  HIS205     -0.2864
    116  CB        29.8230   79.4310   54.6990 C.3   205  HIS205      0.0771
    117  CG        28.8910   79.9730   55.7250 C.ar  205  HIS205      0.0820
    118  ND1       28.2040   79.1610   56.6060 N.ar  205  HIS205     -0.2267
    119  CD2       28.5220   81.2390   56.0150 C.ar  205  HIS205      0.1154
    120  CE1       27.4480   79.9070   57.3890 C.ar  205  HIS205      0.1986
    121  NE2       27.6290   81.1740   57.0560 N.ar  205  HIS205     -0.2212
@<TRIPOS>BOND
     1    99   100    1
     2   102   101    2
     3   100   101    1
     4   101   103   am
     5   110   111    1
     6   110   109    1
     7   103   104    1
     8   108   109    1
     9   108   107    1
    10   115   114    2
    11   104   107    1
    12   104   105    1
    13   112   105   am
    14   112   113    1
    15   114   113    1
    16   105   106    2
    17   113   116    1
    18   116   117    1
    19    85    84    1
    20    85    86    2
    21    94    93    2
    22    93    92    1
    23    84    87    1
    24    84    83    1
    25   117   119   ar
    26   117   118   ar
    27    87    88    1
    28    10     9    1
    29    25    24    1
    30    88    89    1
    31   119   121   ar
    32    92    91    1
    33    92    95    1
    34   118   120   ar
    35     9    11    1
    36     9     8    2
    37    89    90    1
    38   121   120   ar
    39    24    23    1
    40    95    96    1
    41     8     7    1
    42     7     6    1
    43    16    13    1
    44    23    22    1
    45    98    96    1
    46    67    66    2
    47    96    97    1
    48    70    69    1
    49     5     6    1
    50     5     2    1
    51    75    74    2
    52    13    12    1
    53    13    14    1
    54    12     3   am
    55    22    21    1
    56    43    42    1
    57    74    73    1
    58    66    65    1
    59    66    72   am
    60     3     2    1
    61     3     4    2
    62    69    71    1
    63    69    68    1
    64     2     1    1
    65    21    18    1
    66    14    15    2
    67    65    68    1
    68    65    64    1
    69    73    72    1
    70    73    76    1
    71    41    42   ar
    72    41    39   ar
    73    42    40   ar
    74    39    37   ar
    75    76    77    1
    76    18    19    1
    77    18    17    1
    78    40    38   ar
    79    77    78    1
    80    26    19   am
    81    26    27    1
    82    19    20    2
    83    31    30    1
    84    30    27    1
    85    27    28    1
    86    63    61   ar
    87    37    38   ar
    88    37    36    1
    89    34    35    2
    90    34    33    1
    91    60    61    1
    92    60    59    1
    93    61    62   ar
    94    82    80    1
    95    80    81    1
    96    80    79    2
    97    79    78    1
    98    28    29    2
    99    36    33    1
   100    51    53   ar
   101    51    49   ar
   102    33    32    1
   103    53    54   ar
   104    59    56    1
   105    48    49    1
   106    48    45    1
   107    49    50   ar
   108    54    52   ar
   109    55    56    1
   110    55    46   am
   111    56    57    1
   112    44    45    1
   113    45    46    1
   114    50    52   ar
   115    46    47    2
   116    57    58    2
