@<TRIPOS>MOLECULE
tmp/2ixuA01.pdb
 81 82 0 0 0
SMALL
GASTEIGER

@<TRIPOS>ATOM
      1  N         23.4190   53.0170   30.7850 N.3   126  TYR126     -0.1227
      2  CA        24.4830   53.7440   30.1540 C.3   126  TYR126      0.1736
      3  C         25.4350   54.2940   31.2060 C.2   126  TYR126      0.2595
      4  O         25.0810   54.3780   32.3730 O.2   126  TYR126     -0.2718
      5  CB        23.9520   54.8390   29.2180 C.3   126  TYR126      0.0548
      6  CG        23.0700   55.8970   29.8370 C.ar  126  TYR126     -0.0200
      7  CD1       23.5720   57.1880   30.0860 C.ar  126  TYR126     -0.0009
      8  CD2       21.7130   55.6500   30.1140 C.ar  126  TYR126     -0.0009
      9  CE1       22.7740   58.2030   30.6260 C.ar  126  TYR126      0.0417
     10  CE2       20.8800   56.6750   30.6310 C.ar  126  TYR126      0.0417
     11  CZ        21.4350   57.9520   30.8900 C.ar  126  TYR126      0.1957
     12  OH        20.6640   58.9560   31.4190 O.3   126  TYR126     -0.2866
     13  N         26.6510   54.6480   30.7770 N.am  127  LYS127     -0.1966
     14  CA        27.7320   54.9850   31.7000 C.3   127  LYS127      0.1713
     15  C         27.4620   56.1560   32.6650 C.2   127  LYS127      0.2458
     16  O         27.4400   55.9340   33.8620 O.2   127  LYS127     -0.2730
     17  CB        29.0620   55.1610   30.9560 C.3   127  LYS127      0.0311
     18  CG        30.2630   55.4580   31.8770 C.3   127  LYS127      0.0038
     19  CD        31.5720   55.4030   31.1000 C.3   127  LYS127      0.0206
     20  CE        32.7680   55.5150   32.0880 C.3   127  LYS127      0.1093
     21  NZ        34.0410   55.6170   31.3330 N.3   127  LYS127     -0.1314
     22  N         27.2690   57.3950   32.1780 N.am  128  PRO128     -0.2727
     23  CA        27.0230   58.5000   33.1190 C.3   128  PRO128      0.1402
     24  C         25.8540   58.2080   34.0800 C.2   128  PRO128      0.2269
     25  O         25.9950   58.5780   35.2450 O.2   128  PRO128     -0.2865
     26  CB        26.7840   59.7260   32.2210 C.3   128  PRO128      0.0296
     27  CG        26.5250   59.1720   30.8360 C.3   128  PRO128      0.0237
     28  CD        27.3000   57.8770   30.7800 C.3   128  PRO128      0.0939
     29  N         25.0980   50.7510   27.0500 N.3   150  ALA150     -0.1231
     30  CA        24.8160   51.5670   25.8600 C.3   150  ALA150      0.1694
     31  C         25.8250   52.7270   25.7350 C.2   150  ALA150      0.2593
     32  O         26.1740   53.3310   26.7410 O.2   150  ALA150     -0.2718
     33  CB        23.4270   52.1210   25.9370 C.3   150  ALA150      0.0304
     34  N         26.2790   53.0110   24.5130 N.am  151  GLY151     -0.1942
     35  CA        27.2070   54.1080   24.2340 C.3   151  GLY151      0.2014
     36  C         27.2700   54.1900   22.7180 C.2   151  GLY151      0.2639
     37  O         27.8800   53.3270   22.0470 O.2   151  GLY151     -0.2714
     38  N         26.5910   55.1900   22.1650 N.am  152  TYR152     -0.1959
     39  CA        26.3170   55.2420   20.7410 C.3   152  TYR152      0.1771
     40  C         27.3600   56.0250   19.9410 C.2   152  TYR152      0.2620
     41  O         27.4140   55.8940   18.7240 O.2   152  TYR152     -0.2715
     42  CB        24.9140   55.8200   20.4890 C.3   152  TYR152      0.0574
     43  CG        23.7620   55.0730   21.1940 C.ar  152  TYR152     -0.0198
     44  CD1       22.5180   55.6910   21.3960 C.ar  152  TYR152     -0.0009
     45  CD2       23.9050   53.7540   21.5810 C.ar  152  TYR152     -0.0009
     46  CE1       21.4480   55.0070   22.0070 C.ar  152  TYR152      0.0417
     47  CE2       22.8830   53.0720   22.1760 C.ar  152  TYR152      0.0417
     48  CZ        21.6520   53.7000   22.3930 C.ar  152  TYR152      0.1957
     49  OH        20.6710   52.9910   22.9980 O.3   152  TYR152     -0.2866
     50  N         28.1840   56.8300   20.6050 N.am  153  GLY153     -0.1940
     51  CA        29.0980   57.7300   19.8850 C.3   153  GLY153      0.2014
     52  C         28.3160   58.7500   19.0390 C.2   153  GLY153      0.2639
     53  O         27.4020   59.4060   19.5260 O.2   153  GLY153     -0.2714
     54  N         28.6760   58.8530   17.7600 N.am  154  LEU154     -0.1963
     55  CA        27.9570   59.6620   16.7800 C.3   154  LEU154      0.1728
     56  C         26.5940   59.0790   16.4010 C.2   154  LEU154      0.2616
     57  O         25.7980   59.7710   15.7460 O.2   154  LEU154     -0.2715
     58  CB        28.7780   59.8050   15.5030 C.3   154  LEU154      0.0311
     59  CG        30.1890   60.3750   15.6990 C.3   154  LEU154      0.0022
     60  CD1       31.1300   60.1180   14.4560 C.3   154  LEU154      0.0001
     61  CD2       30.0620   61.8630   16.0340 C.3   154  LEU154      0.0001
     62  N         26.3540   57.8260   16.7910 N.am  155  ASN155     -0.1972
     63  CA        25.0810   57.1190   16.5950 C.3   155  ASN155      0.1688
     64  C         24.6690   57.0170   15.1390 C.2   155  ASN155      0.2292
     65  O         23.5270   57.3180   14.7830 O.2   155  ASN155     -0.2864
     66  CB        23.9540   57.7800   17.3970 C.3   155  ASN155      0.1181
     67  CG        22.8110   56.8230   17.7120 C.2   155  ASN155      0.2629
     68  OD1       21.7410   57.2650   18.1240 O.2   155  ASN155     -0.2716
     69  ND2       23.0260   55.5140   17.5220 N.am  155  ASN155     -0.0877
     70  N         34.3980   55.2370   20.6920 N.3   163  TYR163     -0.1241
     71  CA        33.4170   55.6290   21.6960 C.3   163  TYR163      0.1605
     72  C         33.0170   54.4900   22.5900 C.2   163  TYR163      0.2264
     73  O         32.0800   54.6240   23.3840 O.2   163  TYR163     -0.2867
     74  CB        32.1730   56.2430   21.0500 C.3   163  TYR163      0.0534
     75  CG        32.4480   57.5660   20.4110 C.ar  163  TYR163     -0.0201
     76  CD1       32.6620   57.6610   19.0360 C.ar  163  TYR163     -0.0009
     77  CD2       32.4830   58.7410   21.1710 C.ar  163  TYR163     -0.0009
     78  CE1       32.9300   58.8910   18.4250 C.ar  163  TYR163      0.0417
     79  CE2       32.7360   59.9940   20.5710 C.ar  163  TYR163      0.0417
     80  CZ        32.9610   60.0700   19.2010 C.ar  163  TYR163      0.1957
     81  OH        33.2200   61.3170   18.5960 O.3   163  TYR163     -0.2866
@<TRIPOS>BOND
     1    60    59    1
     2    65    64    2
     3    64    63    1
     4    58    59    1
     5    58    55    1
     6    59    61    1
     7    57    56    2
     8    56    55    1
     9    56    62   am
    10    63    62    1
    11    63    66    1
    12    55    54    1
    13    66    67    1
    14    69    67   am
    15    67    68    2
    16    54    52   am
    17    78    76   ar
    18    78    80   ar
    19    81    80    1
    20    41    40    2
    21    76    75   ar
    22    52    53    2
    23    52    51    1
    24    80    79   ar
    25    51    50    1
    26    40    50   am
    27    40    39    1
    28    75    74    1
    29    75    77   ar
    30    42    39    1
    31    42    43    1
    32    79    77   ar
    33    70    71    1
    34    39    38    1
    35    74    71    1
    36    43    44   ar
    37    43    45   ar
    38    44    46   ar
    39    45    47   ar
    40    71    72    1
    41    46    48   ar
    42    37    36    2
    43    38    36   am
    44    47    48   ar
    45    48    49    1
    46    72    73    2
    47    36    35    1
    48    35    34    1
    49    34    31   am
    50    31    30    1
    51    31    32    2
    52    30    33    1
    53    30    29    1
    54     5     6    1
    55     5     2    1
    56     6     7   ar
    57     6     8   ar
    58     7     9   ar
    59     8    10   ar
    60     2     1    1
    61     2     3    1
    62     9    11   ar
    63    10    11   ar
    64    13     3   am
    65    13    14    1
    66    28    27    1
    67    28    22    1
    68    27    26    1
    69    11    12    1
    70    17    14    1
    71    17    18    1
    72    19    18    1
    73    19    20    1
    74     3     4    2
    75    21    20    1
    76    14    15    1
    77    22    15   am
    78    22    23    1
    79    26    23    1
    80    15    16    2
    81    23    24    1
    82    24    25    2
