@<TRIPOS>MOLECULE
tmp/2ixvA01.pdb
 81 82 0 0 0
SMALL
GASTEIGER

@<TRIPOS>ATOM
      1  N         23.3250   53.0410   30.7010 N.3   126  TYR126     -0.1227
      2  CA        24.3870   53.7670   30.0200 C.3   126  TYR126      0.1736
      3  C         25.3510   54.2870   31.0910 C.2   126  TYR126      0.2595
      4  O         24.9720   54.4320   32.2570 O.2   126  TYR126     -0.2718
      5  CB        23.8290   54.8770   29.1090 C.3   126  TYR126      0.0548
      6  CG        22.9310   55.9150   29.7400 C.ar  126  TYR126     -0.0200
      7  CD1       23.4410   57.1470   30.1510 C.ar  126  TYR126     -0.0009
      8  CD2       21.5570   55.6960   29.8610 C.ar  126  TYR126     -0.0009
      9  CE1       22.6080   58.1410   30.6610 C.ar  126  TYR126      0.0417
     10  CE2       20.7140   56.6820   30.3730 C.ar  126  TYR126      0.0417
     11  CZ        21.2470   57.9030   30.7680 C.ar  126  TYR126      0.1957
     12  OH        20.4210   58.8820   31.2600 O.3   126  TYR126     -0.2866
     13  N         26.5990   54.5340   30.7000 N.am  127  LYS127     -0.1966
     14  CA        27.6390   54.9470   31.6420 C.3   127  LYS127      0.1713
     15  C         27.3540   56.0840   32.6240 C.2   127  LYS127      0.2458
     16  O         27.3390   55.8630   33.8320 O.2   127  LYS127     -0.2730
     17  CB        28.9430   55.2380   30.8910 C.3   127  LYS127      0.0311
     18  CG        30.1320   55.4010   31.8190 C.3   127  LYS127      0.0038
     19  CD        31.4400   55.4440   31.0560 C.3   127  LYS127      0.0206
     20  CE        32.6210   55.4440   32.0230 C.3   127  LYS127      0.1093
     21  NZ        33.9220   55.4820   31.3020 N.3   127  LYS127     -0.1314
     22  N         27.1370   57.3120   32.1310 N.am  128  PRO128     -0.2727
     23  CA        26.8690   58.3930   33.0840 C.3   128  PRO128      0.1402
     24  C         25.7230   58.1160   34.0570 C.2   128  PRO128      0.2269
     25  O         25.8250   58.4450   35.2390 O.2   128  PRO128     -0.2865
     26  CB        26.6140   59.6040   32.1810 C.3   128  PRO128      0.0296
     27  CG        26.1330   58.9990   30.9070 C.3   128  PRO128      0.0237
     28  CD        27.0250   57.7960   30.7450 C.3   128  PRO128      0.0939
     29  N         24.9930   50.8030   26.9540 N.3   150  ALA150     -0.1231
     30  CA        24.6850   51.5750   25.7610 C.3   150  ALA150      0.1694
     31  C         25.6510   52.7530   25.6240 C.2   150  ALA150      0.2593
     32  O         25.9160   53.4620   26.5930 O.2   150  ALA150     -0.2718
     33  CB        23.2470   52.0880   25.8310 C.3   150  ALA150      0.0304
     34  N         26.1700   52.9330   24.4120 N.am  151  GLY151     -0.1942
     35  CA        27.0930   54.0150   24.0910 C.3   151  GLY151      0.2014
     36  C         27.0470   54.0820   22.5730 C.2   151  GLY151      0.2639
     37  O         27.6130   53.2250   21.8980 O.2   151  GLY151     -0.2714
     38  N         26.3740   55.0930   22.0320 N.am  152  TYR152     -0.1959
     39  CA        26.1940   55.2080   20.5880 C.3   152  TYR152      0.1771
     40  C         27.2030   56.0230   19.7890 C.2   152  TYR152      0.2620
     41  O         27.2510   55.9080   18.5650 O.2   152  TYR152     -0.2715
     42  CB        24.7940   55.7680   20.3010 C.3   152  TYR152      0.0574
     43  CG        23.6650   55.0400   21.0060 C.ar  152  TYR152     -0.0198
     44  CD1       22.4460   55.6770   21.2380 C.ar  152  TYR152     -0.0009
     45  CD2       23.8090   53.7170   21.4330 C.ar  152  TYR152     -0.0009
     46  CE1       21.4000   55.0240   21.8810 C.ar  152  TYR152      0.0417
     47  CE2       22.7630   53.0500   22.0790 C.ar  152  TYR152      0.0417
     48  CZ        21.5650   53.7130   22.2990 C.ar  152  TYR152      0.1957
     49  OH        20.5340   53.0780   22.9490 O.3   152  TYR152     -0.2866
     50  N         27.9980   56.8470   20.4560 N.am  153  GLY153     -0.1940
     51  CA        28.9460   57.6640   19.7180 C.3   153  GLY153      0.2014
     52  C         28.1660   58.6290   18.8430 C.2   153  GLY153      0.2639
     53  O         27.2980   59.3460   19.3380 O.2   153  GLY153     -0.2714
     54  N         28.4630   58.6400   17.5450 N.am  154  LEU154     -0.1963
     55  CA        27.7750   59.5150   16.5940 C.3   154  LEU154      0.1728
     56  C         26.3800   58.9740   16.2940 C.2   154  LEU154      0.2616
     57  O         25.5520   59.6570   15.6850 O.2   154  LEU154     -0.2715
     58  CB        28.5620   59.6020   15.2820 C.3   154  LEU154      0.0311
     59  CG        29.9880   60.1570   15.3270 C.3   154  LEU154      0.0022
     60  CD1       30.6540   59.9730   13.9700 C.3   154  LEU154      0.0001
     61  CD2       29.9490   61.6250   15.7200 C.3   154  LEU154      0.0001
     62  N         26.1390   57.7330   16.7070 N.am  155  ASN155     -0.1972
     63  CA        24.8530   57.0710   16.5040 C.3   155  ASN155      0.1688
     64  C         24.4630   57.0590   15.0260 C.2   155  ASN155      0.2292
     65  O         23.3390   57.4140   14.6680 O.2   155  ASN155     -0.2864
     66  CB        23.7680   57.7770   17.3230 C.3   155  ASN155      0.1181
     67  CG        22.5950   56.8680   17.6590 C.2   155  ASN155      0.2629
     68  OD1       21.5900   57.3190   18.2080 O.2   155  ASN155     -0.2716
     69  ND2       22.7220   55.5840   17.3420 N.am  155  ASN155     -0.0877
     70  N         34.1490   55.2300   20.4400 N.3   163  TYR163     -0.1241
     71  CA        33.2290   55.5470   21.5260 C.3   163  TYR163      0.1605
     72  C         32.8090   54.3450   22.3620 C.2   163  TYR163      0.2264
     73  O         31.7310   54.3450   22.9620 O.2   163  TYR163     -0.2867
     74  CB        31.9800   56.2370   20.9770 C.3   163  TYR163      0.0534
     75  CG        32.2790   57.5310   20.2690 C.ar  163  TYR163     -0.0201
     76  CD1       32.5820   57.5500   18.9090 C.ar  163  TYR163     -0.0009
     77  CD2       32.2930   58.7400   20.9660 C.ar  163  TYR163     -0.0009
     78  CE1       32.8910   58.7430   18.2580 C.ar  163  TYR163      0.0417
     79  CE2       32.6030   59.9380   20.3270 C.ar  163  TYR163      0.0417
     80  CZ        32.9010   59.9340   18.9730 C.ar  163  TYR163      0.1957
     81  OH        33.2100   61.1160   18.3350 O.3   163  TYR163     -0.2866
@<TRIPOS>BOND
     1    60    59    1
     2    65    64    2
     3    64    63    1
     4    58    59    1
     5    58    55    1
     6    59    61    1
     7    57    56    2
     8    56    55    1
     9    56    62   am
    10    63    62    1
    11    63    66    1
    12    55    54    1
    13    66    67    1
    14    69    67   am
    15    54    52   am
    16    67    68    2
    17    78    76   ar
    18    78    80   ar
    19    81    80    1
    20    41    40    2
    21    52    53    2
    22    52    51    1
    23    76    75   ar
    24    80    79   ar
    25    51    50    1
    26    40    50   am
    27    40    39    1
    28    75    77   ar
    29    75    74    1
    30    42    39    1
    31    42    43    1
    32    79    77   ar
    33    70    71    1
    34    39    38    1
    35    74    71    1
    36    43    44   ar
    37    43    45   ar
    38    44    46   ar
    39    45    47   ar
    40    71    72    1
    41    46    48   ar
    42    37    36    2
    43    38    36   am
    44    47    48   ar
    45    48    49    1
    46    72    73    2
    47    36    35    1
    48    35    34    1
    49    34    31   am
    50    31    30    1
    51    31    32    2
    52    30    33    1
    53    30    29    1
    54     5     6    1
    55     5     2    1
    56     6     8   ar
    57     6     7   ar
    58     8    10   ar
    59     2     1    1
    60     2     3    1
    61     7     9   ar
    62    10    11   ar
    63     9    11   ar
    64    13     3   am
    65    13    14    1
    66    28    27    1
    67    28    22    1
    68    11    12    1
    69    17    14    1
    70    17    18    1
    71    27    26    1
    72    19    18    1
    73    19    20    1
    74     3     4    2
    75    21    20    1
    76    14    15    1
    77    22    15   am
    78    22    23    1
    79    26    23    1
    80    15    16    2
    81    23    24    1
    82    24    25    2
