@<TRIPOS>MOLECULE
tmp/2iy5A00.pdb
 241 233 0 0 0
SMALL
GASTEIGER

@<TRIPOS>ATOM
      1  N         13.0430   65.9750   26.1930 N.3   134  MET134     -0.1230
      2  CA        12.6100   65.6890   24.8240 C.3   134  MET134      0.1702
      3  C         12.5400   64.1670   24.6960 C.2   134  MET134      0.2592
      4  O         11.8520   63.6200   23.8280 O.2   134  MET134     -0.2718
      5  CB        13.5940   66.2460   23.7910 C.3   134  MET134      0.0401
      6  CG        13.2910   65.7810   22.3680 C.3   134  MET134      0.0596
      7  SD        14.3300   66.5520   21.1230 S.3   134  MET134     -0.1393
      8  CE        15.8900   65.7670   21.4280 C.3   134  MET134      0.0692
      9  N         13.2710   63.5060   25.5890 N.am  135  TRP135     -0.1976
     10  CA        13.3390   62.0530   25.6650 C.3   135  TRP135      0.1640
     11  C         12.6320   61.7140   26.9690 C.2   135  TRP135      0.2290
     12  O         12.8800   62.3630   27.9910 O.2   135  TRP135     -0.2864
     13  CB        14.8020   61.5880   25.7650 C.3   135  TRP135      0.0576
     14  CG        15.7470   62.2550   24.8030 C.ar  135  TRP135      0.0006
     15  CD1       16.0620   61.8420   23.5440 C.ar  135  TRP135      0.0946
     16  CD2       16.4430   63.4880   25.0060 C.ar  135  TRP135      0.0152
     17  NE1       16.9070   62.7440   22.9440 N.ar  135  TRP135     -0.2442
     18  CE2       17.1590   63.7680   23.8230 C.ar  135  TRP135      0.0810
     19  CE3       16.5310   64.3930   26.0750 C.ar  135  TRP135      0.0012
     20  CZ2       17.9500   64.9080   23.6730 C.ar  135  TRP135      0.0191
     21  CZ3       17.3170   65.5290   25.9290 C.ar  135  TRP135      0.0001
     22  CH2       18.0160   65.7760   24.7360 C.ar  135  TRP135      0.0015
     23  N         18.0910   57.6330   22.4410 N.3   164  HIS164     -0.1241
     24  CA        18.5850   58.0370   21.1300 C.3   164  HIS164      0.1621
     25  C         19.8710   57.2600   20.9240 C.2   164  HIS164      0.2264
     26  O         20.3830   56.6930   21.8700 O.2   164  HIS164     -0.2867
     27  CB        18.8480   59.5410   21.0750 C.3   164  HIS164      0.0745
     28  CG        19.6440   60.0680   22.2270 C.ar  164  HIS164      0.0817
     29  ND1       20.0520   61.3810   22.3100 N.ar  164  HIS164     -0.2268
     30  CD2       20.0940   59.4630   23.3560 C.ar  164  HIS164      0.1154
     31  CE1       20.7160   61.5660   23.4380 C.ar  164  HIS164      0.1986
     32  NE2       20.7550   60.4200   24.0890 N.ar  164  HIS164     -0.2212
     33  N         22.6760   58.6170   19.9340 N.3   166  SER166     -0.1217
     34  CA        23.7770   59.5260   20.1990 C.3   166  SER166      0.1889
     35  C         24.8050   59.0510   21.2080 C.2   166  SER166      0.2288
     36  O         25.9550   59.4760   21.1550 O.2   166  SER166     -0.2866
     37  CB        23.2440   60.8910   20.6170 C.3   166  SER166      0.2089
     38  OG        22.8760   61.6210   19.4660 O.3   166  SER166     -0.2183
     39  N         28.1130   58.0430   20.1710 N.3   169  GLN169     -0.1245
     40  CA        29.0720   59.0780   19.8180 C.3   169  GLN169      0.1566
     41  C         30.1370   59.0600   20.8880 C.2   169  GLN169      0.2260
     42  O         31.3080   59.0290   20.5790 O.2   169  GLN169     -0.2867
     43  CB        28.4050   60.4550   19.7780 C.3   169  GLN169      0.0367
     44  CG        27.6540   60.7380   18.5030 C.3   169  GLN169      0.0905
     45  CD        27.0530   62.1160   18.5020 C.2   169  GLN169      0.2608
     46  OE1       27.7520   63.1010   18.6850 O.2   169  GLN169     -0.2717
     47  NE2       25.7480   62.1970   18.2910 N.am  169  GLN169     -0.0878
     48  N         11.5620   55.2150   23.8320 N.3   190  ARG190     -0.1245
     49  CA        11.0790   56.4060   24.5310 C.3   190  ARG190      0.1563
     50  C          9.7170   56.1630   25.1590 C.2   190  ARG190      0.2260
     51  O          8.9890   55.2640   24.7610 O.2   190  ARG190     -0.2867
     52  CB        11.0010   57.6060   23.5930 C.3   190  ARG190      0.0307
     53  CG        12.3340   58.2460   23.3670 C.3   190  ARG190      0.0489
     54  CD        12.1970   59.5030   22.5810 C.3   190  ARG190      0.2205
     55  NE        13.4880   59.9220   22.0700 N.pl3 190  ARG190     -0.0865
     56  CZ        13.6380   60.7820   21.0750 C.cat 190  ARG190      0.5346
     57  NH1       12.5660   61.3090   20.4960 N.pl3 190  ARG190      0.1354
     58  NH2       14.8530   61.0920   20.6490 N.pl3 190  ARG190      0.1354
     59  N          6.3310   57.5100   25.3320 N.3   192  GLU192     -0.1245
     60  CA         5.3390   58.4290   24.7870 C.3   192  GLU192      0.1567
     61  C          4.1760   57.6630   24.1730 C.2   192  GLU192      0.2260
     62  O          4.3710   56.6220   23.5470 O.2   192  GLU192     -0.2867
     63  CB         5.9740   59.3360   23.7430 C.3   192  GLU192      0.0388
     64  CG         6.8920   58.6240   22.7900 C.3   192  GLU192      0.1160
     65  CD         7.3970   59.5380   21.6900 C.2   192  GLU192      0.3649
     66  OE1        8.3100   59.1130   20.9350 O.co2 192  GLU192     -0.2457
     67  OE2        6.8740   60.6760   21.5800 O.co2 192  GLU192     -0.2457
     68  N          2.0430   58.3220   13.7460 N.3   197  THR197     -0.1203
     69  CA         3.4030   58.6830   13.4040 C.3   197  THR197      0.1994
     70  C          4.2970   58.7220   14.6350 C.2   197  THR197      0.2618
     71  O          5.2250   59.5220   14.7210 O.2   197  THR197     -0.2717
     72  CB         3.4190   60.0490   12.7040 C.3   197  THR197      0.1784
     73  OG1        2.7800   61.0230   13.5410 O.3   197  THR197     -0.2211
     74  CG2        2.6760   59.9630   11.3740 C.3   197  THR197      0.0376
     75  N          4.0080   57.8490   15.5910 N.am  198  HIS198     -0.1961
     76  CA         4.7840   57.7780   16.8250 C.3   198  HIS198      0.1787
     77  C          4.8330   56.3820   17.4080 C.2   198  HIS198      0.2620
     78  O          3.8760   55.6180   17.2990 O.2   198  HIS198     -0.2715
     79  CB         4.2050   58.7220   17.8810 C.3   198  HIS198      0.0785
     80  CG         4.2920   60.1670   17.5010 C.ar  198  HIS198      0.0821
     81  ND1        3.5670   60.7030   16.4610 N.ar  198  HIS198     -0.2267
     82  CD2        5.0550   61.1710   17.9920 C.ar  198  HIS198      0.1154
     83  CE1        3.8810   61.9790   16.3250 C.ar  198  HIS198      0.1986
     84  NE2        4.7810   62.2880   17.2400 N.ar  198  HIS198     -0.2212
     85  N          5.9560   56.0540   18.0310 N.am  199  GLU199     -0.1977
     86  CA         6.1290   54.7570   18.6690 C.3   199  GLU199      0.1602
     87  C          6.8300   54.9560   20.0000 C.2   199  GLU199      0.2287
     88  O          7.1970   56.0710   20.3640 O.2   199  GLU199     -0.2864
     89  CB         6.9680   53.8370   17.7890 C.3   199  GLU199      0.0415
     90  CG         6.1840   52.7190   17.1100 C.3   199  GLU199      0.1163
     91  CD         5.8530   51.5560   18.0410 C.2   199  GLU199      0.3649
     92  OE1        5.2140   50.5960   17.5700 O.co2 199  GLU199     -0.2457
     93  OE2        6.2280   51.5950   19.2310 O.co2 199  GLU199     -0.2457
     94  N         11.5240   52.7320   18.4900 N.3   202  PHE202     -0.1241
     95  CA        11.7750   53.0610   17.0980 C.3   202  PHE202      0.1605
     96  C         13.2730   53.1020   16.8050 C.2   202  PHE202      0.2264
     97  O         14.0800   52.9440   17.7130 O.2   202  PHE202     -0.2867
     98  CB        11.1090   54.4010   16.7710 C.3   202  PHE202      0.0534
     99  CG        11.4740   55.5000   17.7150 C.ar  202  PHE202     -0.0203
    100  CD1       12.5860   56.2990   17.4780 C.ar  202  PHE202     -0.0042
    101  CD2       10.7180   55.7300   18.8580 C.ar  202  PHE202     -0.0042
    102  CE1       12.9390   57.3130   18.3660 C.ar  202  PHE202     -0.0003
    103  CE2       11.0640   56.7450   19.7590 C.ar  202  PHE202     -0.0003
    104  CZ        12.1750   57.5360   19.5080 C.ar  202  PHE202     -0.0000
    105  N         16.7830   55.0290   15.0190 N.3   204  GLN204     -0.1245
    106  CA        17.4490   56.2580   14.5880 C.3   204  GLN204      0.1566
    107  C         18.7160   55.8700   13.8210 C.2   204  GLN204      0.2260
    108  O         19.0030   54.6880   13.6350 O.2   204  GLN204     -0.2867
    109  CB        17.8280   57.1280   15.7890 C.3   204  GLN204      0.0367
    110  CG        16.6800   57.9190   16.3470 C.3   204  GLN204      0.0905
    111  CD        17.0530   58.8440   17.5010 C.2   204  GLN204      0.2608
    112  OE1       16.1910   59.5310   18.0470 O.2   204  GLN204     -0.2717
    113  NE2       18.3280   58.8680   17.8750 N.am  204  GLN204     -0.0878
    114  N         22.7020   57.5260   13.7260 N.3   206  GLU206     -0.1245
    115  CA        23.6780   58.5540   14.0630 C.3   206  GLU206      0.1567
    116  C         24.7020   58.6830   12.9610 C.2   206  GLU206      0.2260
    117  O         24.9390   57.7520   12.1920 O.2   206  GLU206     -0.2867
    118  CB        24.4300   58.2090   15.3410 C.3   206  GLU206      0.0388
    119  CG        23.7090   58.5160   16.6070 C.3   206  GLU206      0.1160
    120  CD        23.4510   59.9890   16.7910 C.2   206  GLU206      0.3649
    121  OE1       24.3610   60.7920   16.5340 O.co2 206  GLU206     -0.2457
    122  OE2       22.3340   60.3420   17.2130 O.co2 206  GLU206     -0.2457
    123  N         20.1150   71.2920   21.0950 N.3   244  PHE244     -0.1241
    124  CA        20.4950   69.9820   21.6060 C.3   244  PHE244      0.1605
    125  C         21.6720   70.3130   22.5020 C.2   244  PHE244      0.2264
    126  O         22.5470   71.0660   22.1160 O.2   244  PHE244     -0.2867
    127  CB        20.9210   69.0350   20.4840 C.3   244  PHE244      0.0534
    128  CG        19.7950   68.6070   19.5930 C.ar  244  PHE244     -0.0203
    129  CD1       19.4760   69.3380   18.4590 C.ar  244  PHE244     -0.0042
    130  CD2       19.0440   67.4820   19.8960 C.ar  244  PHE244     -0.0042
    131  CE1       18.4260   68.9590   17.6440 C.ar  244  PHE244     -0.0003
    132  CE2       17.9930   67.0970   19.0900 C.ar  244  PHE244     -0.0003
    133  CZ        17.6830   67.8340   17.9590 C.ar  244  PHE244     -0.0000
    134  N         24.2210   68.7030   23.1260 N.3   246  PHE246     -0.1227
    135  CA        25.4730   68.1380   22.6350 C.3   246  PHE246      0.1736
    136  C         26.0380   68.5620   21.2870 C.2   246  PHE246      0.2595
    137  O         26.9560   67.9230   20.7550 O.2   246  PHE246     -0.2718
    138  CB        25.3960   66.6200   22.7140 C.3   246  PHE246      0.0547
    139  CG        24.1340   66.0710   22.1780 C.ar  246  PHE246     -0.0202
    140  CD1       24.0280   65.7450   20.8370 C.ar  246  PHE246     -0.0042
    141  CD2       23.0410   65.8800   23.0120 C.ar  246  PHE246     -0.0042
    142  CE1       22.8440   65.2550   20.3190 C.ar  246  PHE246     -0.0003
    143  CE2       21.8420   65.3890   22.5050 C.ar  246  PHE246     -0.0003
    144  CZ        21.7520   65.0630   21.1530 C.ar  246  PHE246     -0.0000
    145  N         25.5100   69.6690   20.7660 N.am  247  VAL247     -0.1980
    146  CA        25.9820   70.2500   19.5030 C.3   247  VAL247      0.1595
    147  C         25.8470   71.7760   19.4690 C.2   247  VAL247      0.2287
    148  O         24.7610   72.2640   19.3550 O.2   247  VAL247     -0.2864
    149  CB        25.2070   69.7110   18.3170 C.3   247  VAL247      0.0276
    150  CG1       25.4950   68.2870   18.1100 C.3   247  VAL247      0.0022
    151  CG2       23.7550   69.8930   18.5410 C.3   247  VAL247      0.0022
    152  N         10.8210   66.6010    7.6460 N.3   265  GLU265     -0.1231
    153  CA        11.7720   66.8960    8.7070 C.3   265  GLU265      0.1699
    154  C         12.4090   65.5740    9.1290 C.2   265  GLU265      0.2592
    155  O         11.7800   64.7490    9.7810 O.2   265  GLU265     -0.2718
    156  CB        11.0610   67.5660    9.8840 C.3   265  GLU265      0.0402
    157  CG        10.4820   68.9540    9.5570 C.3   265  GLU265      0.1161
    158  CD        11.5130   70.0920    9.5780 C.2   265  GLU265      0.3649
    159  OE1       11.1570   71.2140    9.1570 O.co2 265  GLU265     -0.2457
    160  OE2       12.6650   69.8810   10.0190 O.co2 265  GLU265     -0.2457
    161  N         13.6690   65.3820    8.7550 N.am  266  LEU266     -0.1966
    162  CA        14.3640   64.1430    9.0520 C.3   266  LEU266      0.1728
    163  C         14.9980   63.9800   10.4190 C.2   266  LEU266      0.2617
    164  O         14.6760   63.0360   11.1250 O.2   266  LEU266     -0.2715
    165  CB        15.4000   63.8790    7.9730 C.3   266  LEU266      0.0311
    166  CG        14.7570   63.6430    6.6190 C.3   266  LEU266      0.0022
    167  CD1       15.7940   63.2260    5.6280 C.3   266  LEU266      0.0001
    168  CD2       13.7200   62.5610    6.7480 C.3   266  LEU266      0.0001
    169  N         15.9020   64.8710   10.7990 N.am  267  GLY267     -0.1940
    170  CA        16.5310   64.7220   12.0950 C.3   267  GLY267      0.2014
    171  C         17.2150   65.9720   12.6050 C.2   267  GLY267      0.2639
    172  O         17.0110   67.0710   12.0880 O.2   267  GLY267     -0.2714
    173  N         18.0170   65.7990   13.6500 N.am  268  GLY268     -0.1939
    174  CA        18.7470   66.9100   14.2210 C.3   268  GLY268      0.2014
    175  C         20.1420   66.8380   13.6510 C.2   268  GLY268      0.2638
    176  O         20.4510   65.8990   12.9370 O.2   268  GLY268     -0.2714
    177  N         20.9850   67.8160   13.9530 N.am  269  ALA269     -0.1977
    178  CA        22.3530   67.8290   13.4460 C.3   269  ALA269      0.1597
    179  C         23.1060   68.9440   14.1200 C.2   269  ALA269      0.2287
    180  O         22.5970   69.5710   15.0390 O.2   269  ALA269     -0.2864
    181  CB        22.3560   68.0480   11.9490 C.3   269  ALA269      0.0319
    182  N         27.6650   65.8490   13.9770 N.3   300  ALA300     -0.1231
    183  CA        26.8350   64.6870   14.2280 C.3   300  ALA300      0.1694
    184  C         25.4540   64.9940   13.6830 C.2   300  ALA300      0.2592
    185  O         25.0960   66.1570   13.4700 O.2   300  ALA300     -0.2718
    186  CB        26.7580   64.4080   15.7080 C.3   300  ALA300      0.0304
    187  N         24.6900   63.9440   13.4280 N.am  301  PHE301     -0.1962
    188  CA        23.3390   64.0820   12.9350 C.3   301  PHE301      0.1771
    189  C         22.6750   62.7900   13.3120 C.2   301  PHE301      0.2620
    190  O         23.3460   61.7730   13.4670 O.2   301  PHE301     -0.2715
    191  CB        23.3090   64.3120   11.4160 C.3   301  PHE301      0.0574
    192  CG        23.7570   63.1340   10.5890 C.ar  301  PHE301     -0.0200
    193  CD1       23.0000   61.9620   10.5360 C.ar  301  PHE301     -0.0042
    194  CD2       24.9420   63.1940    9.8610 C.ar  301  PHE301     -0.0042
    195  CE1       23.4170   60.8690    9.7740 C.ar  301  PHE301     -0.0003
    196  CE2       25.3680   62.1050    9.0950 C.ar  301  PHE301     -0.0003
    197  CZ        24.6040   60.9400    9.0560 C.ar  301  PHE301     -0.0000
    198  N         21.3640   62.8350   13.4960 N.am  302  GLY302     -0.1940
    199  CA        20.6250   61.6410   13.8610 C.3   302  GLY302      0.2014
    200  C         19.2350   61.6940   13.2740 C.2   302  GLY302      0.2639
    201  O         18.5050   62.6650   13.4920 O.2   302  GLY302     -0.2714
    202  N         18.8600   60.6640   12.5260 N.am  303  LEU303     -0.1963
    203  CA        17.5400   60.6540   11.9180 C.3   303  LEU303      0.1728
    204  C         16.6080   59.5010   12.2860 C.2   303  LEU303      0.2616
    205  O         17.0420   58.4640   12.7760 O.2   303  LEU303     -0.2715
    206  CB        17.6650   60.7990   10.3920 C.3   303  LEU303      0.0311
    207  CG        18.6700   60.0480    9.5330 C.3   303  LEU303      0.0022
    208  CD1       18.2730   58.6070    9.3740 C.3   303  LEU303      0.0001
    209  CD2       18.7100   60.7240    8.1900 C.3   303  LEU303      0.0001
    210  N         15.3120   59.7240   12.0870 N.am  304  GLY304     -0.1955
    211  CA        14.3270   58.7140   12.4040 C.3   304  GLY304      0.1869
    212  C         14.2080   57.7980   11.2150 C.2   304  GLY304      0.2309
    213  O         13.8490   58.2420   10.1260 O.2   304  GLY304     -0.2863
    214  N         12.1840   54.8770   10.7420 N.3   306  GLU306     -0.1231
    215  CA        10.7870   54.6090   10.4280 C.3   306  GLU306      0.1699
    216  C         10.1130   55.7180    9.6560 C.2   306  GLU306      0.2592
    217  O          9.5000   55.4770    8.6260 O.2   306  GLU306     -0.2718
    218  CB         9.9820   54.3470   11.6940 C.3   306  GLU306      0.0402
    219  CG        10.1900   52.9810   12.3040 C.3   306  GLU306      0.1161
    220  CD        11.2090   52.9930   13.4020 C.2   306  GLU306      0.3649
    221  OE1       11.6710   54.0950   13.7660 O.co2 306  GLU306     -0.2457
    222  OE2       11.5340   51.9000   13.9030 O.co2 306  GLU306     -0.2457
    223  N         10.2160   56.9410   10.1480 N.am  307  ARG307     -0.1980
    224  CA         9.5780   58.0350    9.4540 C.3   307  ARG307      0.1597
    225  C         10.0750   58.1310    8.0290 C.2   307  ARG307      0.2287
    226  O          9.3010   58.3850    7.1200 O.2   307  ARG307     -0.2864
    227  CB         9.8050   59.3400   10.2090 C.3   307  ARG307      0.0334
    228  CG         8.9570   59.4270   11.4740 C.3   307  ARG307      0.0492
    229  CD         8.9790   60.8110   12.0630 C.3   307  ARG307      0.2205
    230  NE         8.2310   60.8700   13.3090 N.pl3 307  ARG307     -0.0865
    231  CZ         8.1270   61.9640   14.0560 C.cat 307  ARG307      0.5346
    232  NH1        8.7270   63.0880   13.6740 N.pl3 307  ARG307      0.1354
    233  NH2        7.4280   61.9330   15.1850 N.pl3 307  ARG307      0.1354
    234  N          2.9030   54.0640   11.5810 N.3   318  ILE318     -0.1245
    235  CA         4.1820   53.6320   12.1380 C.3   318  ILE318      0.1561
    236  C          4.1140   52.3940   13.0400 C.2   318  ILE318      0.2260
    237  O          5.1220   51.7300   13.2740 O.2   318  ILE318     -0.2867
    238  CB         4.8150   54.7980   12.9310 C.3   318  ILE318      0.0252
    239  CG1        6.1770   54.3990   13.4900 C.3   318  ILE318      0.0019
    240  CG2        3.9060   55.1920   14.0610 C.3   318  ILE318      0.0019
    241  CD1        6.7740   55.4330   14.4050 C.3   318  ILE318      0.0001
@<TRIPOS>BOND
     1   167   166    1
     2   166   168    1
     3   166   165    1
     4   226   225    2
     5   152   153    1
     6   165   162    1
     7   225   224    1
     8   209   207    1
     9   217   216    2
    10   153   154    1
    11   153   156    1
    12   161   162    1
    13   161   154   am
    14   162   163    1
    15   197   196   ar
    16   197   195   ar
    17   196   194   ar
    18   154   155    2
    19   159   158   ar
    20   208   207    1
    21   224   223    1
    22   224   227    1
    23   207   206    1
    24   157   158    1
    25   157   156    1
    26   158   160   ar
    27   216   223   am
    28   216   215    1
    29   195   193   ar
    30   194   192   ar
    31   213   212    2
    32   227   228    1
    33   206   203    1
    34   163   169   am
    35   163   164    2
    36   215   214    1
    37   215   218    1
    38   193   192   ar
    39   192   191    1
    40   169   170    1
    41   212   211    1
    42    74    72    1
    43   191   188    1
    44   228   229    1
    45   234   235    1
    46   218   219    1
    47   203   204    1
    48   203   202    1
    49   181   178    1
    50   229   230    1
    51   210   204   am
    52   210   211    1
    53   172   171    2
    54   170   171    1
    55   235   238    1
    56   235   236    1
    57   117   116    2
    58   204   205    2
    59   219   220    1
    60   202   200   am
    61   171   173   am
    62    72    69    1
    63    72    73    1
    64   238   239    1
    65   238   240    1
    66   188   189    1
    67   188   187    1
    68   176   175    2
    69   116   115    1
    70   236   237    2
    71   200   201    2
    72   200   199    1
    73   230   231    2
    74   189   190    2
    75   189   198   am
    76   220   221   ar
    77   220   222   ar
    78    69    68    1
    79    69    70    1
    80   187   184   am
    81   178   177    1
    82   178   179    1
    83   185   184    2
    84   239   241    1
    85   198   199    1
    86   108   107    2
    87   173   174    1
    88   175   177   am
    89   175   174    1
    90   232   231    1
    91   184   183    1
    92   114   115    1
    93   107   106    1
    94   182   183    1
    95   231   233    1
    96   115   118    1
    97   179   180    2
    98   183   186    1
    99   106   105    1
   100   106   109    1
   101    70    71    2
   102    70    75   am
   103   118   119    1
   104    75    76    1
   105   109   110    1
   106    83    81   ar
   107    83    84   ar
   108   110   111    1
   109    81    80   ar
   110   121   120   ar
   111   119   120    1
   112    98    95    1
   113    98    99    1
   114   120   122   ar
   115    96    95    1
   116    96    97    2
   117    76    77    1
   118    76    79    1
   119    95    94    1
   120    90    89    1
   121    90    91    1
   122    84    82   ar
   123    78    77    2
   124    77    85   am
   125   100    99   ar
   126   100   102   ar
   127    80    79    1
   128    80    82   ar
   129   111   113   am
   130   111   112    2
   131    92    91   ar
   132   131   133   ar
   133   131   129   ar
   134    99   101   ar
   135    89    86    1
   136   133   132   ar
   137    85    86    1
   138    91    93   ar
   139   150   149    1
   140    47    45   am
   141   149   151    1
   142   149   146    1
   143   102   104   ar
   144   129   128   ar
   145    45    44    1
   146    45    46    2
   147    44    43    1
   148    86    87    1
   149   101   103   ar
   150   132   130   ar
   151   148   147    2
   152    38    37    1
   153   147   146    1
   154   146   145    1
   155   104   103   ar
   156   128   130   ar
   157   128   127    1
   158    43    40    1
   159    40    39    1
   160    40    41    1
   161    33    34    1
   162    87    88    2
   163    34    37    1
   164    34    35    1
   165   142   140   ar
   166   142   144   ar
   167   127   124    1
   168    57    56    1
   169    42    41    2
   170    58    56    1
   171   137   136    2
   172   145   136   am
   173   140   139   ar
   174    25    24    1
   175    25    26    2
   176    66    65   ar
   177    27    24    1
   178    27    28    1
   179    56    55    2
   180   123   124    1
   181     7     8    1
   182     7     6    1
   183    24    23    1
   184   144   143   ar
   185    36    35    2
   186   136   135    1
   187    67    65   ar
   188   124   125    1
   189    65    64    1
   190    55    54    1
   191   126   125    2
   192   139   138    1
   193   139   141   ar
   194    28    29   ar
   195    28    30   ar
   196    29    31   ar
   197     6     5    1
   198   143   141   ar
   199    54    53    1
   200   135   138    1
   201   135   134    1
   202    64    63    1
   203    17    15   ar
   204    17    18   ar
   205    30    32   ar
   206    53    52    1
   207    31    32   ar
   208    15    14   ar
   209    62    61    2
   210    52    49    1
   211    20    18   ar
   212    20    22   ar
   213    63    60    1
   214     5     2    1
   215    18    16   ar
   216     4     3    2
   217    48    49    1
   218    61    60    1
   219    49    50    1
   220     3     2    1
   221     3     9   am
   222    22    21   ar
   223    51    50    2
   224    60    59    1
   225    14    16   ar
   226    14    13    1
   227     2     1    1
   228    16    19   ar
   229     9    10    1
   230    10    13    1
   231    10    11    1
   232    21    19   ar
   233    11    12    2
