@<TRIPOS>MOLECULE
tmp/2iy6B02.pdb
 105 100 0 0 0
SMALL
GASTEIGER

@<TRIPOS>ATOM
      1  N         29.5320   32.0700  140.9900 N.3   133  ALA133     -0.1245
      2  CA        29.6490   31.4780  139.6490 C.3   133  ALA133      0.1562
      3  C         28.9850   32.3850  138.6070 C.2   133  ALA133      0.2260
      4  O         29.4890   32.5380  137.4900 O.2   133  ALA133     -0.2867
      5  CB        29.0400   30.0870  139.6180 C.3   133  ALA133      0.0290
      6  N         30.9790   34.2880  135.6110 N.3   137  GLU137     -0.1245
      7  CA        30.6170   34.0560  134.2050 C.3   137  GLU137      0.1567
      8  C         30.3660   35.3610  133.4310 C.2   137  GLU137      0.2260
      9  O         30.7270   35.4750  132.2470 O.2   137  GLU137     -0.2867
     10  CB        29.4110   33.1170  134.0870 C.3   137  GLU137      0.0388
     11  CG        29.1060   32.7590  132.6200 C.3   137  GLU137      0.1160
     12  CD        27.8340   31.9710  132.4090 C.2   137  GLU137      0.3649
     13  OE1       27.1610   31.6110  133.3900 O.co2 137  GLU137     -0.2457
     14  OE2       27.5050   31.7200  131.2300 O.co2 137  GLU137     -0.2457
     15  N         17.2580   33.9930  135.9200 N.3   184  ASN184     -0.1225
     16  CA        18.0300   32.9590  136.6050 C.3   184  ASN184      0.1785
     17  C         19.5400   33.2030  136.6060 C.2   184  ASN184      0.2597
     18  O         20.2320   32.8120  137.5540 O.2   184  ASN184     -0.2718
     19  CB        17.6700   31.5500  136.0990 C.3   184  ASN184      0.1169
     20  CG        18.2640   31.2350  134.7330 C.2   184  ASN184      0.2627
     21  OD1       18.4100   32.1140  133.8770 O.2   184  ASN184     -0.2716
     22  ND2       18.6200   29.9680  134.5290 N.am  184  ASN184     -0.0877
     23  N         20.0330   33.8490  135.5450 N.am  185  PHE185     -0.1976
     24  CA        21.4160   34.3210  135.5060 C.3   185  PHE185      0.1639
     25  C         21.4400   35.7920  135.1150 C.2   185  PHE185      0.2290
     26  O         21.8370   36.1500  133.9910 O.2   185  PHE185     -0.2864
     27  CB        22.2740   33.4180  134.5880 C.3   185  PHE185      0.0560
     28  CG        22.6680   32.1260  135.2540 C.ar  185  PHE185     -0.0200
     29  CD1       21.7530   31.0800  135.3740 C.ar  185  PHE185     -0.0042
     30  CD2       23.9290   31.9870  135.8360 C.ar  185  PHE185     -0.0042
     31  CE1       22.0980   29.9020  136.0330 C.ar  185  PHE185     -0.0003
     32  CE2       24.2750   30.8090  136.5040 C.ar  185  PHE185     -0.0003
     33  CZ        23.3550   29.7710  136.5970 C.ar  185  PHE185     -0.0000
     34  N         24.1240   36.1230  132.0870 N.3   189  ILE189     -0.1245
     35  CA        23.5090   36.0310  130.7620 C.3   189  ILE189      0.1561
     36  C         23.0150   37.4100  130.3250 C.2   189  ILE189      0.2260
     37  O         23.1340   37.7620  129.1630 O.2   189  ILE189     -0.2867
     38  CB        22.4170   34.9210  130.7140 C.3   189  ILE189      0.0252
     39  CG1       23.1270   33.5510  130.8000 C.3   189  ILE189      0.0019
     40  CG2       21.6050   34.9840  129.4250 C.3   189  ILE189      0.0019
     41  CD1       22.2310   32.3510  130.9620 C.3   189  ILE189      0.0001
     42  N         17.6710   26.1160  136.2510 N.3   321  LYS321     -0.1231
     43  CA        18.6850   26.2710  135.2120 C.3   321  LYS321      0.1693
     44  C         18.2100   25.5890  133.9410 C.2   321  LYS321      0.2592
     45  O         17.5960   24.5180  133.9900 O.2   321  LYS321     -0.2718
     46  CB        20.0070   25.6550  135.6660 C.3   321  LYS321      0.0285
     47  CG        20.5910   26.3300  136.9210 C.3   321  LYS321      0.0035
     48  CD        21.9680   25.7740  137.2470 C.3   321  LYS321      0.0206
     49  CE        22.5000   26.3710  138.5520 C.3   321  LYS321      0.1093
     50  NZ        23.9020   25.9040  138.7910 N.3   321  LYS321     -0.1314
     51  N         18.4870   26.2150  132.7990 N.am  322  CYS322     -0.1956
     52  CA        18.1700   25.6180  131.5010 C.3   322  CYS322      0.1843
     53  C         18.9020   24.2930  131.3370 C.2   322  CYS322      0.2626
     54  O         18.4090   23.3910  130.6660 O.2   322  CYS322     -0.2714
     55  CB        18.5420   26.5740  130.3730 C.3   322  CYS322      0.0997
     56  SG        17.6380   28.1350  130.5280 S.3   322  CYS322     -0.0797
     57  N         20.0470   24.1930  132.0130 N.am  323  SER323     -0.1950
     58  CA        20.9240   23.0190  131.9700 C.3   323  SER323      0.1924
     59  C         20.6420   21.9880  133.0520 C.2   323  SER323      0.2314
     60  O         21.2910   20.9480  133.0710 O.2   323  SER323     -0.2863
     61  CB        22.3790   23.4690  132.1450 C.3   323  SER323      0.2116
     62  OG        22.5190   24.1100  133.3970 O.3   323  SER323     -0.2180
     63  N         26.1960   18.4150  134.6840 N.3   475  ILE475     -0.1231
     64  CA        25.7820   18.8970  133.3580 C.3   475  ILE475      0.1692
     65  C         25.4080   20.3760  133.3560 C.2   475  ILE475      0.2593
     66  O         24.9840   20.9300  132.3270 O.2   475  ILE475     -0.2718
     67  CB        24.6410   18.0250  132.7420 C.3   475  ILE475      0.0266
     68  CG1       23.3120   18.2220  133.5070 C.3   475  ILE475      0.0019
     69  CG2       25.0510   16.5600  132.7130 C.3   475  ILE475      0.0020
     70  CD1       22.0830   17.6530  132.7380 C.3   475  ILE475      0.0001
     71  N         25.5900   21.0160  134.5050 N.am  476  THR476     -0.1939
     72  CA        25.3690   22.4610  134.6310 C.3   476  THR476      0.2028
     73  C         26.7240   23.1800  134.6710 C.2   476  THR476      0.2643
     74  O         27.7830   22.5450  134.7990 O.2   476  THR476     -0.2714
     75  CB        24.6300   22.8020  135.9380 C.3   476  THR476      0.1808
     76  OG1       25.4230   22.3680  137.0510 O.3   476  THR476     -0.2208
     77  CG2       23.2340   22.1230  136.0050 C.3   476  THR476      0.0379
     78  N         26.6750   24.5030  134.5990 N.am  477  GLY477     -0.1939
     79  CA        27.8580   25.3430  134.8110 C.3   477  GLY477      0.2014
     80  C         28.8110   25.4500  133.6380 C.2   477  GLY477      0.2639
     81  O         30.0260   25.5890  133.8300 O.2   477  GLY477     -0.2714
     82  N         28.2660   25.4180  132.4210 N.am  478  ALA478     -0.1963
     83  CA        29.0770   25.5920  131.2070 C.3   478  ALA478      0.1728
     84  C         29.9850   26.8290  131.3370 C.2   478  ALA478      0.2616
     85  O         29.5150   27.9320  131.6400 O.2   478  ALA478     -0.2715
     86  CB        28.1700   25.7210  129.9830 C.3   478  ALA478      0.0334
     87  N         31.2810   26.6340  131.1320 N.am  479  LEU479     -0.1977
     88  CA        32.2420   27.7290  131.2470 C.3   479  LEU479      0.1596
     89  C         32.4570   28.4260  129.9120 C.2   479  LEU479      0.2287
     90  O         32.6600   27.7810  128.8890 O.2   479  LEU479     -0.2864
     91  CB        33.5790   27.2120  131.7770 C.3   479  LEU479      0.0297
     92  CG        33.5790   26.7750  133.2400 C.3   479  LEU479      0.0022
     93  CD1       34.9060   26.1080  133.5290 C.3   479  LEU479      0.0001
     94  CD2       33.3810   27.9950  134.1700 C.3   479  LEU479      0.0001
     95  N         28.0000   27.3430  124.6390 N.3   485  PHE485     -0.1241
     96  CA        26.7220   26.9550  125.2710 C.3   485  PHE485      0.1605
     97  C         25.4910   27.2420  124.4140 C.2   485  PHE485      0.2264
     98  O         25.2540   28.3790  124.0300 O.2   485  PHE485     -0.2867
     99  CB        26.5440   27.6150  126.6540 C.3   485  PHE485      0.0534
    100  CG        25.3250   27.1070  127.4030 C.ar  485  PHE485     -0.0203
    101  CD1       25.3450   25.8480  128.0030 C.ar  485  PHE485     -0.0042
    102  CD2       24.1630   27.8670  127.4670 C.ar  485  PHE485     -0.0042
    103  CE1       24.2250   25.3600  128.6820 C.ar  485  PHE485     -0.0003
    104  CE2       23.0240   27.3940  128.1480 C.ar  485  PHE485     -0.0003
    105  CZ        23.0600   26.1420  128.7550 C.ar  485  PHE485     -0.0000
@<TRIPOS>BOND
     1    98    97    2
     2    97    96    1
     3    95    96    1
     4    96    99    1
     5    99   100    1
     6   100   102   ar
     7   100   101   ar
     8   102   104   ar
     9   101   103   ar
    10   104   105   ar
    11   103   105   ar
    12    90    89    2
    13    37    36    2
    14    40    38    1
    15    89    88    1
    16    86    83    1
    17    36    35    1
    18    55    56    1
    19    55    52    1
    20    54    53    2
    21    38    35    1
    22    38    39    1
    23    35    34    1
    24    39    41    1
    25    87    88    1
    26    87    84   am
    27    83    84    1
    28    83    82    1
    29    14    12   ar
    30    88    91    1
    31    53    52    1
    32    53    57   am
    33    84    85    2
    34    52    51    1
    35    91    92    1
    36    58    57    1
    37    58    61    1
    38    58    59    1
    39    61    62    1
    40     9     8    2
    41    66    65    2
    42    12    11    1
    43    12    13   ar
    44    82    80   am
    45    11    10    1
    46    69    67    1
    47    70    68    1
    48    67    64    1
    49    67    68    1
    50    51    44   am
    51    59    60    2
    52    92    93    1
    53    92    94    1
    54    65    64    1
    55    65    71   am
    56    64    63    1
    57     8     7    1
    58    80    81    2
    59    80    79    1
    60    21    20    2
    61    44    45    2
    62    44    43    1
    63    26    25    2
    64    10     7    1
    65     7     6    1
    66    71    72    1
    67    22    20   am
    68    27    28    1
    69    27    24    1
    70    78    73   am
    71    78    79    1
    72    72    73    1
    73    72    75    1
    74    73    74    2
    75    20    19    1
    76    25    24    1
    77    43    46    1
    78    43    42    1
    79    28    29   ar
    80    28    30   ar
    81    29    31   ar
    82    24    23    1
    83    23    17   am
    84    46    47    1
    85    30    32   ar
    86    15    16    1
    87    75    77    1
    88    75    76    1
    89    31    33   ar
    90    19    16    1
    91    32    33   ar
    92    16    17    1
    93    17    18    2
    94    47    48    1
    95    48    49    1
    96     4     3    2
    97    49    50    1
    98     3     2    1
    99     5     2    1
   100     2     1    1
