@<TRIPOS>MOLECULE
tmp/2iy7A00.pdb
 221 216 0 0 0
SMALL
GASTEIGER

@<TRIPOS>ATOM
      1  N         50.4930    8.0980    8.3860 N.3    11  ALA11      -0.1231
      2  CA        51.0780    9.3420    8.8790 C.3    11  ALA11       0.1694
      3  C         52.4390    9.1700    9.5340 C.2    11  ALA11       0.2593
      4  O         53.2240    8.3090    9.1070 O.2    11  ALA11      -0.2718
      5  CB        50.0560   10.0490    9.8350 C.3    11  ALA11       0.0304
      6  N         52.7370    9.9830   10.5430 N.am   12  SER12      -0.1938
      7  CA        54.0360    9.9260   11.1820 C.3    12  SER12       0.2055
      8  C         53.9450    9.4760   12.6340 C.2    12  SER12       0.2642
      9  O         54.6720    8.5610   13.0380 O.2    12  SER12      -0.2714
     10  CB        54.7350   11.2970   11.1110 C.3    12  SER12       0.2130
     11  OG        55.1140   11.6350    9.7820 O.3    12  SER12      -0.2179
     12  N         53.0620   10.0990   13.4260 N.am   13  LEU13      -0.1977
     13  CA        52.9840    9.7710   14.8840 C.3    13  LEU13       0.1596
     14  C         52.7080    8.3190   15.2020 C.2    13  LEU13       0.2287
     15  O         53.4350    7.7300   16.0280 O.2    13  LEU13      -0.2864
     16  CB        52.0470   10.7060   15.6530 C.3    13  LEU13       0.0297
     17  CG        52.6370   12.0840   15.8980 C.3    13  LEU13       0.0022
     18  CD1       51.5680   13.0140   16.4970 C.3    13  LEU13       0.0001
     19  CD2       53.8590   11.9460   16.8330 C.3    13  LEU13       0.0001
     20  N         55.8100    6.2580   14.4200 N.3    16  LEU16      -0.1245
     21  CA        56.8890    6.3960   15.4150 C.3    16  LEU16       0.1561
     22  C         56.7080    5.4510   16.6010 C.2    16  LEU16       0.2260
     23  O         57.6800    4.8770   17.1060 O.2    16  LEU16      -0.2867
     24  CB        56.9910    7.8300   15.9330 C.3    16  LEU16       0.0270
     25  CG        57.5040    8.8940   14.9590 C.3    16  LEU16       0.0019
     26  CD1       57.4480   10.2590   15.6550 C.3    16  LEU16       0.0001
     27  CD2       58.9220    8.6070   14.4560 C.3    16  LEU16       0.0001
     28  N         55.1780    6.5560    5.4710 N.3    38  ARG38      -0.1245
     29  CA        56.2440    7.5480    5.5980 C.3    38  ARG38       0.1563
     30  C         57.5780    6.9670    6.0750 C.2    38  ARG38       0.2260
     31  O         58.5510    7.6980    6.2830 O.2    38  ARG38      -0.2867
     32  CB        55.7730    8.6230    6.5830 C.3    38  ARG38       0.0307
     33  CG        54.5840    9.4360    6.0440 C.3    38  ARG38       0.0489
     34  CD        54.3860   10.7050    6.8140 C.3    38  ARG38       0.2205
     35  NE        53.1760   11.3960    6.3730 N.pl3  38  ARG38      -0.0865
     36  CZ        52.5790   12.3580    7.0730 C.cat  38  ARG38       0.5346
     37  NH1       53.0940   12.7370    8.2460 N.pl3  38  ARG38       0.1354
     38  NH2       51.4510   12.9130    6.6250 N.pl3  38  ARG38       0.1354
     39  N         42.0690    7.0550   11.1570 N.3    87  HIS87      -0.1241
     40  CA        41.7910    6.2660    9.9750 C.3    87  HIS87       0.1621
     41  C         41.5430    4.8140   10.3060 C.2    87  HIS87       0.2264
     42  O         41.5900    3.9780    9.4230 O.2    87  HIS87      -0.2867
     43  CB        42.9570    6.3910    8.9670 C.3    87  HIS87       0.0745
     44  CG        43.1760    7.7920    8.4920 C.ar   87  HIS87       0.0817
     45  ND1       44.2930    8.5280    8.8210 N.ar   87  HIS87      -0.2268
     46  CD2       42.4060    8.6030    7.7280 C.ar   87  HIS87       0.1154
     47  CE1       44.2060    9.7300    8.2780 C.ar   87  HIS87       0.1986
     48  NE2       43.0690    9.7970    7.6070 N.ar   87  HIS87      -0.2212
     49  N         46.6900   10.0080   15.0000 N.3   116  ASP116     -0.1225
     50  CA        47.1740   10.5580   13.7470 C.3   116  ASP116      0.1805
     51  C         47.9600   11.8270   14.1390 C.2   116  ASP116      0.2598
     52  O         49.0290   12.0960   13.5940 O.2   116  ASP116     -0.2718
     53  CB        45.9310   10.9180   12.9100 C.3   116  ASP116      0.1424
     54  CG        46.2450   11.3920   11.4880 C.2   116  ASP116      0.3668
     55  OD1       46.8200   10.6050   10.6730 O.co2 116  ASP116     -0.2456
     56  OD2       45.8440   12.5460   11.1720 O.co2 116  ASP116     -0.2456
     57  N         47.4080   12.5980   15.0740 N.am  117  GLY117     -0.1942
     58  CA        48.0350   13.8250   15.5380 C.3   117  GLY117      0.2014
     59  C         46.9490   14.7900   15.9890 C.2   117  GLY117      0.2639
     60  O         46.0100   14.3910   16.6880 O.2   117  GLY117     -0.2714
     61  N         47.0570   16.0450   15.5600 N.am  118  SER118     -0.1949
     62  CA        46.1100   17.0890   15.9480 C.3   118  SER118      0.1924
     63  C         44.7110   16.8860   15.3670 C.2   118  SER118      0.2314
     64  O         43.7610   17.4270   15.9060 O.2   118  SER118     -0.2863
     65  CB        46.6390   18.4710   15.5310 C.3   118  SER118      0.2116
     66  OG        46.8030   18.5350   14.1260 O.3   118  SER118     -0.2180
     67  N         42.6140   14.3190   15.4190 N.3   119  GLU119     -0.1245
     68  CA        41.6480   13.7350   16.3570 C.3   119  GLU119      0.1567
     69  C         41.1160   14.7700   17.3410 C.2   119  GLU119      0.2260
     70  O         39.9520   14.7470   17.6950 O.2   119  GLU119     -0.2867
     71  CB        42.2730   12.5650   17.1350 C.3   119  GLU119      0.0388
     72  CG        42.3960   11.2680   16.3160 C.3   119  GLU119      0.1160
     73  CD        43.7180   11.1280   15.6140 C.2   119  GLU119      0.3649
     74  OE1       44.4260   12.1570   15.4560 O.co2 119  GLU119     -0.2457
     75  OE2       44.0450    9.9760   15.2170 O.co2 119  GLU119     -0.2457
     76  N         41.0980   18.2820   16.9490 N.3   121  VAL121     -0.1245
     77  CA        40.2790   19.2580   16.2330 C.3   121  VAL121      0.1561
     78  C         38.8880   18.6540   15.9880 C.2   121  VAL121      0.2260
     79  O         37.8720   19.3260   16.2150 O.2   121  VAL121     -0.2867
     80  CB        40.9520   19.6800   14.8920 C.3   121  VAL121      0.0252
     81  CG1       40.0410   20.5860   14.0890 C.3   121  VAL121      0.0019
     82  CG2       42.2520   20.3880   15.1780 C.3   121  VAL121      0.0019
     83  N         59.7180   25.4730   12.1380 N.3   238  THR238     -0.1203
     84  CA        59.0100   24.2650   11.6990 C.3   238  THR238      0.1994
     85  C         57.9980   24.6190   10.6240 C.2   238  THR238      0.2618
     86  O         57.2410   25.5870   10.7570 O.2   238  THR238     -0.2717
     87  CB        58.2980   23.5580   12.8730 C.3   238  THR238      0.1784
     88  OG1       57.2660   24.4100   13.3920 O.3   238  THR238     -0.2211
     89  CG2       59.3300   23.2290   13.9750 C.3   238  THR238      0.0376
     90  N         57.9930   23.8170    9.5580 N.am  239  GLY239     -0.1942
     91  CA        57.1310   24.0700    8.4170 C.3   239  GLY239      0.2014
     92  C         55.8220   23.3160    8.5030 C.2   239  GLY239      0.2640
     93  O         55.6350   22.4280    9.3490 O.2   239  GLY239     -0.2714
     94  N         54.9000   23.6880    7.6240 N.am  240  THR240     -0.1936
     95  CA        53.5950   23.0550    7.5640 C.3   240  THR240      0.2028
     96  C         53.3650   22.6320    6.1250 C.2   240  THR240      0.2643
     97  O         54.3040   22.6280    5.3200 O.2   240  THR240     -0.2714
     98  CB        52.4640   24.0360    8.0390 C.3   240  THR240      0.1808
     99  OG1       51.2350   23.3090    8.1870 O.3   240  THR240     -0.2208
    100  CG2       52.2750   25.2030    7.0650 C.3   240  THR240      0.0379
    101  N         52.1480   22.1990    5.8200 N.am  241  THR241     -0.1936
    102  CA        51.8200   21.8790    4.4410 C.3   241  THR241      0.2028
    103  C         50.3350   22.0470    4.2390 C.2   241  THR241      0.2643
    104  O         49.6180   22.4120    5.1800 O.2   241  THR241     -0.2714
    105  CB        52.2440   20.4360    4.0260 C.3   241  THR241      0.1808
    106  OG1       52.1570   20.3210    2.5940 O.3   241  THR241     -0.2208
    107  CG2       51.3450   19.3800    4.6600 C.3   241  THR241      0.0379
    108  N         49.8980   21.8140    3.0030 N.am  242  THR242     -0.1936
    109  CA        48.4760   21.7700    2.6710 C.3   242  THR242      0.2028
    110  C         48.2340   20.5250    1.8280 C.2   242  THR242      0.2642
    111  O         49.1100   20.1090    1.0620 O.2   242  THR242     -0.2714
    112  CB        48.0020   23.0390    1.8930 C.3   242  THR242      0.1808
    113  OG1       46.6400   22.8750    1.4850 O.3   242  THR242     -0.2208
    114  CG2       48.8730   23.3120    0.6690 C.3   242  THR242      0.0379
    115  N         47.0580   19.9200    1.9870 N.am  243  TRP243     -0.1973
    116  CA        46.7140   18.7640    1.1760 C.3   243  TRP243      0.1640
    117  C         46.0660   19.1940   -0.1310 C.2   243  TRP243      0.2290
    118  O         45.9390   18.3900   -1.0470 O.2   243  TRP243     -0.2864
    119  CB        45.8410   17.7680    1.9480 C.3   243  TRP243      0.0576
    120  CG        46.4780   17.3840    3.2470 C.ar  243  TRP243      0.0006
    121  CD1       45.9940   17.6390    4.4920 C.ar  243  TRP243      0.0946
    122  CD2       47.7320   16.6990    3.4300 C.ar  243  TRP243      0.0152
    123  NE1       46.8580   17.1560    5.4380 N.ar  243  TRP243     -0.2442
    124  CE2       47.9370   16.5830    4.8200 C.ar  243  TRP243      0.0810
    125  CE3       48.7020   16.1830    2.5570 C.ar  243  TRP243      0.0012
    126  CZ2       49.0720   15.9590    5.3660 C.ar  243  TRP243      0.0191
    127  CZ3       49.8300   15.5550    3.0990 C.ar  243  TRP243      0.0001
    128  CH2       50.0030   15.4550    4.4920 C.ar  243  TRP243      0.0015
    129  N         62.9900   22.7020    9.8050 N.3   282  LYS282     -0.1231
    130  CA        62.4540   21.3520    9.8800 C.3   282  LYS282      0.1693
    131  C         61.1590   21.3710    9.0430 C.2   282  LYS282      0.2593
    132  O         60.1040   21.7630    9.5380 O.2   282  LYS282     -0.2718
    133  CB        62.1990   20.9620   11.3500 C.3   282  LYS282      0.0285
    134  CG        61.4970   19.5860   11.5900 C.3   282  LYS282      0.0035
    135  CD        62.3570   18.3610   11.2110 C.3   282  LYS282      0.0206
    136  CE        61.9590   17.8450    9.8460 C.3   282  LYS282      0.1093
    137  NZ        60.6440   17.0640    9.8110 N.3   282  LYS282     -0.1314
    138  N         61.2620   21.0030    7.7570 N.am  283  GLY283     -0.1942
    139  CA        60.0890   20.9930    6.8790 C.3   283  GLY283      0.2014
    140  C         59.0960   19.8970    7.2380 C.2   283  GLY283      0.2639
    141  O         59.4350   18.9500    7.9410 O.2   283  GLY283     -0.2714
    142  N         57.8620   20.0240    6.7660 N.am  284  HIS284     -0.1959
    143  CA        56.8440   19.0180    7.0180 C.3   284  HIS284      0.1772
    144  C         57.2050   17.8050    6.1620 C.2   284  HIS284      0.2462
    145  O         57.6770   17.9770    5.0410 O.2   284  HIS284     -0.2730
    146  CB        55.4510   19.5620    6.6210 C.3   284  HIS284      0.0785
    147  CG        54.3380   18.5880    6.8640 C.ar  284  HIS284      0.0821
    148  ND1       53.5350   18.6160    7.9880 N.ar  284  HIS284     -0.2267
    149  CD2       53.9270   17.5120    6.1480 C.ar  284  HIS284      0.1154
    150  CE1       52.6820   17.6100    7.9500 C.ar  284  HIS284      0.1986
    151  NE2       52.9000   16.9240    6.8430 N.ar  284  HIS284     -0.2212
    152  N         57.0160   16.5730    6.6790 N.am  285  PRO285     -0.2727
    153  CA        57.3330   15.3520    5.9160 C.3   285  PRO285      0.1402
    154  C         56.7130   15.3040    4.5130 C.2   285  PRO285      0.2269
    155  O         57.2520   14.6450    3.6100 O.2   285  PRO285     -0.2865
    156  CB        56.7840   14.2170    6.7800 C.3   285  PRO285      0.0296
    157  CG        56.7350   14.7660    8.1620 C.3   285  PRO285      0.0237
    158  CD        56.5340   16.2620    8.0410 C.3   285  PRO285      0.0939
    159  N         61.1040   12.9160   11.7640 N.3   309  SER309     -0.1202
    160  CA        60.1000   13.4680   12.6680 C.3   309  SER309      0.2020
    161  C         60.7680   14.2950   13.7630 C.2   309  SER309      0.2619
    162  O         61.8010   13.9100   14.3360 O.2   309  SER309     -0.2717
    163  CB        59.2670   12.3580   13.3150 C.3   309  SER309      0.2103
    164  OG        58.1770   11.9730   12.4830 O.3   309  SER309     -0.2182
    165  N         60.1750   15.4510   14.0360 N.am  310  PHE310     -0.1961
    166  CA        60.6970   16.3720   15.0290 C.3   310  PHE310      0.1771
    167  C         60.9470   15.7270   16.3970 C.2   310  PHE310      0.2619
    168  O         61.9270   16.0620   17.0820 O.2   310  PHE310     -0.2715
    169  CB        59.7300   17.5650   15.1880 C.3   310  PHE310      0.0574
    170  CG        60.2230   18.5920   16.1550 C.ar  310  PHE310     -0.0200
    171  CD1       60.9700   19.6780   15.7110 C.ar  310  PHE310     -0.0042
    172  CD2       59.9400   18.4690   17.5170 C.ar  310  PHE310     -0.0042
    173  CE1       61.4580   20.6090   16.6020 C.ar  310  PHE310     -0.0003
    174  CE2       60.4220   19.3950   18.4290 C.ar  310  PHE310     -0.0003
    175  CZ        61.1720   20.4820   17.9710 C.ar  310  PHE310     -0.0000
    176  N         60.0560   14.8160   16.8000 N.am  311  GLU311     -0.1977
    177  CA        60.1280   14.1850   18.1320 C.3   311  GLU311      0.1602
    178  C         61.4050   13.3720   18.3500 C.2   311  GLU311      0.2287
    179  O         61.7840   13.0740   19.5000 O.2   311  GLU311     -0.2864
    180  CB        58.8980   13.2980   18.3700 C.3   311  GLU311      0.0415
    181  CG        57.6030   14.0740   18.4740 C.3   311  GLU311      0.1163
    182  CD        56.9770   14.3680   17.1360 C.2   311  GLU311      0.3649
    183  OE1       57.5480   13.9950   16.0910 O.co2 311  GLU311     -0.2457
    184  OE2       55.9000   14.9880   17.1380 O.co2 311  GLU311     -0.2457
    185  N         51.3860   26.0740   13.6610 N.3   325  ALA325     -0.1231
    186  CA        50.8160   25.0370   14.5160 C.3   325  ALA325      0.1694
    187  C         50.9250   23.6780   13.8420 C.2   325  ALA325      0.2593
    188  O         50.5600   23.5090   12.6780 O.2   325  ALA325     -0.2718
    189  CB        49.3290   25.3330   14.8000 C.3   325  ALA325      0.0304
    190  N         51.4250   22.7110   14.5980 N.am  326  SER326     -0.1938
    191  CA        51.5390   21.3520   14.1200 C.3   326  SER326      0.2055
    192  C         51.5590   20.4430   15.3350 C.2   326  SER326      0.2644
    193  O         51.7390   20.9080   16.4640 O.2   326  SER326     -0.2714
    194  CB        52.7860   21.1770   13.2580 C.3   326  SER326      0.2130
    195  OG        53.9210   20.9310   14.0220 O.3   326  SER326     -0.2179
    196  N         51.3190   19.1580   15.1050 N.am  327  SER327     -0.1935
    197  CA        51.3070   18.1650   16.1830 C.3   327  SER327      0.2055
    198  C         52.5830   18.0880   17.0480 C.2   327  SER327      0.2642
    199  O         52.5150   17.6560   18.2070 O.2   327  SER327     -0.2714
    200  CB        51.0090   16.7830   15.6010 C.3   327  SER327      0.2130
    201  OG        49.8180   16.8310   14.8280 O.3   327  SER327     -0.2179
    202  N         53.7360   18.5060   16.5140 N.am  328  LEU328     -0.1977
    203  CA        54.9720   18.4110   17.2910 C.3   328  LEU328      0.1596
    204  C         54.9350   19.3200   18.5130 C.2   328  LEU328      0.2287
    205  O         55.5860   19.0330   19.5050 O.2   328  LEU328     -0.2864
    206  CB        56.2150   18.6590   16.4150 C.3   328  LEU328      0.0297
    207  CG        56.9150   19.9630   15.9360 C.3   328  LEU328      0.0022
    208  CD1       56.5980   20.4090   14.5350 C.3   328  LEU328      0.0001
    209  CD2       56.9800   21.1170   16.9590 C.3   328  LEU328      0.0001
    210  N         41.1940   24.3600   16.1990 N.3   348  TYR348     -0.1241
    211  CA        42.6120   24.0740   16.5080 C.3   348  TYR348      0.1605
    212  C         43.1160   25.0440   17.5870 C.2   348  TYR348      0.2264
    213  O         43.8130   24.6590   18.5310 O.2   348  TYR348     -0.2867
    214  CB        43.4770   24.2050   15.2470 C.3   348  TYR348      0.0534
    215  CG        44.7840   23.4460   15.2650 C.ar  348  TYR348     -0.0201
    216  CD1       45.4660   23.1890   14.0880 C.ar  348  TYR348     -0.0009
    217  CD2       45.3490   23.0020   16.4480 C.ar  348  TYR348     -0.0009
    218  CE1       46.6890   22.4950   14.0920 C.ar  348  TYR348      0.0417
    219  CE2       46.5780   22.3100   16.4610 C.ar  348  TYR348      0.0417
    220  CZ        47.2300   22.0670   15.2800 C.ar  348  TYR348      0.1957
    221  OH        48.4150   21.3860   15.2850 O.3   348  TYR348     -0.2866
@<TRIPOS>BOND
     1   118   117    2
     2   117   116    1
     3   114   112    1
     4   111   110    2
     5   116   119    1
     6   116   115    1
     7   113   112    1
     8   110   115   am
     9   110   109    1
    10   112   109    1
    11   119   120    1
    12   125   127   ar
    13   125   122   ar
    14   106   105    1
    15   109   108    1
    16   108   103   am
    17   127   128   ar
    18   120   122   ar
    19   120   121   ar
    20   122   124   ar
    21   155   154    2
    22   105   102    1
    23   105   107    1
    24   103   102    1
    25   103   104    2
    26   102   101    1
    27   128   126   ar
    28   121   123   ar
    29   154   153    1
    30   124   126   ar
    31   124   123   ar
    32   145   144    2
    33    97    96    2
    34    28    29    1
    35    29    30    1
    36    29    32    1
    37   101    96   am
    38   153   152    1
    39   153   156    1
    40    33    32    1
    41    33    34    1
    42    30    31    2
    43    96    95    1
    44   149   151   ar
    45   149   147   ar
    46   144   152   am
    47   144   143    1
    48    35    34    1
    49    35    36    2
    50   146   147    1
    51   146   143    1
    52    38    36    1
    53   152   158    1
    54   142   143    1
    55   142   140   am
    56   156   157    1
    57   151   150   ar
    58   147   148   ar
    59   139   140    1
    60   139   138    1
    61   100    98    1
    62    36    37    1
    63   140   141    2
    64    95    94    1
    65    95    98    1
    66    48    46   ar
    67    48    47   ar
    68    94    92   am
    69    46    44   ar
    70   138   131   am
    71   150   148   ar
    72    98    99    1
    73   158   157    1
    74    47    45   ar
    75     1     2    1
    76    91    92    1
    77    91    90    1
    78    44    45   ar
    79    44    43    1
    80    92    93    2
    81     2     3    1
    82     2     5    1
    83    43    40    1
    84   131   132    2
    85   131   130    1
    86     4     3    2
    87    42    41    2
    88     3     6   am
    89    90    85   am
    90    11    10    1
    91   129   130    1
    92   137   136    1
    93   136   135    1
    94   130   133    1
    95    40    41    1
    96    40    39    1
    97     6     7    1
    98    85    86    2
    99    85    84    1
   100    55    54   ar
   101    10     7    1
   102    56    54   ar
   103     7     8    1
   104   135   134    1
   105   133   134    1
   106    54    53    1
   107    84    83    1
   108    84    87    1
   109   159   160    1
   110   164   163    1
   111     8     9    2
   112     8    12   am
   113   160   163    1
   114   160   161    1
   115   188   187    2
   116    87    88    1
   117    87    89    1
   118    53    50    1
   119   194   195    1
   120   194   191    1
   121    12    13    1
   122    52    51    2
   123   185   186    1
   124    50    51    1
   125    50    49    1
   126   161   165   am
   127   161   162    2
   128   187   186    1
   129   187   190   am
   130   165   166    1
   131   216   218   ar
   132   216   215   ar
   133    81    80    1
   134   218   220   ar
   135   191   190    1
   136   191   192    1
   137    66    65    1
   138    51    57   am
   139    20    21    1
   140    27    25    1
   141   186   189    1
   142   208   207    1
   143   201   200    1
   144    13    14    1
   145    13    16    1
   146    80    82    1
   147    80    77    1
   148    25    26    1
   149    25    24    1
   150   166   169    1
   151   166   167    1
   152    57    58    1
   153   196   192   am
   154   196   197    1
   155   169   170    1
   156    14    15    2
   157    75    73   ar
   158   214   215    1
   159   214   211    1
   160   215   217   ar
   161   220   221    1
   162   220   219   ar
   163   192   193    2
   164    63    64    2
   165    63    62    1
   166    21    24    1
   167    21    22    1
   168    67    68    1
   169    74    73   ar
   170    65    62    1
   171    58    59    1
   172    61    62    1
   173    61    59   am
   174   200   197    1
   175    73    72    1
   176    16    17    1
   177   171   170   ar
   178   171   173   ar
   179    17    18    1
   180    17    19    1
   181   207   206    1
   182   207   209    1
   183    78    79    2
   184    78    77    1
   185    59    60    2
   186   183   182   ar
   187   170   172   ar
   188   197   198    1
   189   210   211    1
   190    77    76    1
   191    72    71    1
   192    68    71    1
   193    68    69    1
   194   167   176   am
   195   167   168    2
   196   206   203    1
   197   217   219   ar
   198   211   212    1
   199   202   198   am
   200   202   203    1
   201    22    23    2
   202   173   175   ar
   203   176   177    1
   204   198   199    2
   205   182   184   ar
   206   182   181    1
   207   203   204    1
   208    69    70    2
   209   172   174   ar
   210   212   213    2
   211   175   174   ar
   212   177   178    1
   213   177   180    1
   214   178   179    2
   215   180   181    1
   216   204   205    2
