@<TRIPOS>MOLECULE
tmp/2iyaA00.pdb
 169 162 0 0 0
SMALL
GASTEIGER

@<TRIPOS>ATOM
      1  N         39.3080   37.8120   25.8200 N.3    13  HIS13      -0.1226
      2  CA        39.2120   36.9460   27.0120 C.3    13  HIS13       0.1752
      3  C         39.7710   37.6160   28.2570 C.2    13  HIS13       0.2597
      4  O         39.2390   37.4220   29.3570 O.2    13  HIS13      -0.2718
      5  CB        39.9020   35.5750   26.8330 C.3    13  HIS13       0.0759
      6  CG        39.1550   34.6350   25.9360 C.ar   13  HIS13       0.0818
      7  ND1       38.2170   33.7420   26.4040 N.ar   13  HIS13      -0.2268
      8  CD2       39.2160   34.4510   24.6000 C.ar   13  HIS13       0.1154
      9  CE1       37.7290   33.0500   25.3920 C.ar   13  HIS13       0.1986
     10  NE2       38.3220   33.4570   24.2860 N.ar   13  HIS13      -0.2212
     11  N         40.8150   38.4230   28.0860 N.am   14  GLY14      -0.1942
     12  CA        41.4040   39.1340   29.2230 C.3    14  GLY14       0.2014
     13  C         40.5000   40.2000   29.8360 C.2    14  GLY14       0.2638
     14  O         40.6330   40.5490   31.0170 O.2    14  GLY14      -0.2714
     15  N         39.5520   40.7010   29.0450 N.am   15  HIS15      -0.1973
     16  CA        38.5610   41.6560   29.5530 C.3    15  HIS15       0.1656
     17  C         37.2820   40.9520   30.0310 C.2    15  HIS15       0.2291
     18  O         36.7170   41.3290   31.0410 O.2    15  HIS15      -0.2864
     19  CB        38.2490   42.7100   28.4970 C.3    15  HIS15       0.0771
     20  CG        39.4000   43.6220   28.2250 C.ar   15  HIS15       0.0820
     21  ND1       39.3900   44.9570   28.5650 N.ar   15  HIS15      -0.2267
     22  CD2       40.6240   43.3760   27.6970 C.ar   15  HIS15       0.1154
     23  CE1       40.5440   45.5060   28.2210 C.ar   15  HIS15       0.1986
     24  NE2       41.3170   44.5640   27.7070 N.ar   15  HIS15      -0.2212
     25  N         36.8430   37.5320   31.0060 N.3    17  ASN17      -0.1240
     26  CA        36.9680   36.5250   32.0660 C.3    17  ASN17       0.1653
     27  C         36.7990   37.0210   33.5030 C.2    17  ASN17       0.2266
     28  O         36.0610   36.3920   34.2710 O.2    17  ASN17      -0.2867
     29  CB        38.2530   35.6840   31.9210 C.3    17  ASN17       0.1155
     30  CG        38.1270   34.6510   30.8490 C.2    17  ASN17       0.2627
     31  OD1       37.0430   34.4780   30.3000 O.2    17  ASN17      -0.2716
     32  ND2       39.2150   33.9460   30.5370 N.am   17  ASN17      -0.0877
     33  N         34.9320   28.0990   36.1300 N.3   211  ARG211     -0.1245
     34  CA        35.1430   28.0330   34.6800 C.3   211  ARG211      0.1563
     35  C         34.8820   26.6220   34.1330 C.2   211  ARG211      0.2260
     36  O         35.5770   26.1630   33.2260 O.2   211  ARG211     -0.2867
     37  CB        36.5580   28.5050   34.3430 C.3   211  ARG211      0.0307
     38  CG        36.7070   29.1470   32.9820 C.3   211  ARG211      0.0489
     39  CD        37.9880   29.9800   32.9290 C.3   211  ARG211      0.2205
     40  NE        37.8770   31.2980   33.5550 N.pl3 211  ARG211     -0.0865
     41  CZ        38.9290   32.0970   33.7940 C.cat 211  ARG211      0.5346
     42  NH1       40.1590   31.7130   33.4480 N.pl3 211  ARG211      0.1354
     43  NH2       38.7670   33.2770   34.3580 N.pl3 211  ARG211      0.1354
     44  N         34.8520   25.5490   30.3800 N.3   214  GLN214     -0.1245
     45  CA        36.0790   25.1070   29.6970 C.3   214  GLN214      0.1566
     46  C         36.3750   23.6210   29.9020 C.2   214  GLN214      0.2260
     47  O         37.2310   23.0430   29.2160 O.2   214  GLN214     -0.2867
     48  CB        37.2830   25.9240   30.1830 C.3   214  GLN214      0.0367
     49  CG        37.4220   27.2810   29.5390 C.3   214  GLN214      0.0905
     50  CD        38.8450   27.8280   29.6600 C.2   214  GLN214      0.2608
     51  OE1       39.4280   27.8320   30.7470 O.2   214  GLN214     -0.2717
     52  NE2       39.4120   28.2670   28.5390 N.am  214  GLN214     -0.0878
     53  N         51.9250   29.5310   28.2790 N.3   230  ALA230     -0.1245
     54  CA        50.8290   30.2080   27.5690 C.3   230  ALA230      0.1562
     55  C         51.0470   31.7230   27.6230 C.2   230  ALA230      0.2260
     56  O         51.2450   32.2770   28.7140 O.2   230  ALA230     -0.2867
     57  CB        49.4940   29.8470   28.1720 C.3   230  ALA230      0.0290
     58  N         48.7720   34.1540   26.8160 N.3   232  GLY232     -0.1210
     59  CA        47.5280   34.9280   26.8230 C.3   232  GLY232      0.1956
     60  C         46.6220   34.6750   25.6440 C.2   232  GLY232      0.2613
     61  O         46.7570   33.6610   24.9560 O.2   232  GLY232     -0.2717
     62  N         45.6790   35.5920   25.4110 N.am  233  SER233     -0.1938
     63  CA        44.6810   35.3690   24.3670 C.3   233  SER233      0.2055
     64  C         44.8720   36.2820   23.1640 C.2   233  SER233      0.2643
     65  O         44.0790   36.2300   22.2240 O.2   233  SER233     -0.2714
     66  CB        43.2460   35.4930   24.9110 C.3   233  SER233      0.2130
     67  OG        43.0220   36.8110   25.3900 O.3   233  SER233     -0.2179
     68  N         45.9210   37.1000   23.1730 N.am  234  ALA234     -0.1963
     69  CA        46.0810   38.0750   22.0870 C.3   234  ALA234      0.1728
     70  C         47.4260   38.0400   21.3750 C.2   234  ALA234      0.2616
     71  O         47.4730   37.8820   20.1490 O.2   234  ALA234     -0.2715
     72  CB        45.7660   39.5070   22.5890 C.3   234  ALA234      0.0334
     73  N         48.5050   38.1850   22.1200 N.am  235  PHE235     -0.1974
     74  CA        49.8120   38.4160   21.4850 C.3   235  PHE235      0.1639
     75  C         50.6270   37.1330   21.4650 C.2   235  PHE235      0.2290
     76  O         51.6820   37.0370   22.0780 O.2   235  PHE235     -0.2864
     77  CB        50.5500   39.5280   22.2210 C.3   235  PHE235      0.0560
     78  CG        49.8680   40.8640   22.1000 C.ar  235  PHE235     -0.0200
     79  CD1       49.9090   41.5600   20.8970 C.ar  235  PHE235     -0.0042
     80  CD2       49.1440   41.3910   23.1720 C.ar  235  PHE235     -0.0042
     81  CE1       49.2580   42.8080   20.7730 C.ar  235  PHE235     -0.0003
     82  CE2       48.4950   42.6100   23.0500 C.ar  235  PHE235     -0.0003
     83  CZ        48.5620   43.3140   21.8550 C.ar  235  PHE235     -0.0000
     84  N         50.4990   25.9640   25.1580 N.3   259  SER259     -0.1217
     85  CA        49.3830   26.5690   24.4290 C.3   259  SER259      0.1889
     86  C         50.0020   27.5430   23.4440 C.2   259  SER259      0.2288
     87  O         50.7560   28.4310   23.8750 O.2   259  SER259     -0.2866
     88  CB        48.4670   27.3040   25.4040 C.3   259  SER259      0.2089
     89  OG        47.3480   27.8260   24.7180 O.3   259  SER259     -0.2183
     90  N         44.7030   26.2400   22.3720 N.3   281  TRP281     -0.1227
     91  CA        43.9440   26.8590   23.4850 C.3   281  TRP281      0.1737
     92  C         43.7030   25.7970   24.5570 C.2   281  TRP281      0.2595
     93  O         43.3840   24.6520   24.2250 O.2   281  TRP281     -0.2718
     94  CB        42.6440   27.4330   22.9530 C.3   281  TRP281      0.0564
     95  CG        41.7210   28.0630   23.9540 C.ar  281  TRP281      0.0003
     96  CD1       40.5990   27.5110   24.4910 C.ar  281  TRP281      0.0946
     97  CD2       41.8060   29.3960   24.4770 C.ar  281  TRP281      0.0152
     98  NE1       39.9840   28.4100   25.3410 N.ar  281  TRP281     -0.2442
     99  CE2       40.7160   29.5710   25.3600 C.ar  281  TRP281      0.0810
    100  CE3       42.7110   30.4530   24.2970 C.ar  281  TRP281      0.0012
    101  CZ2       40.4910   30.7740   26.0550 C.ar  281  TRP281      0.0191
    102  CZ3       42.4930   31.6530   24.9980 C.ar  281  TRP281      0.0001
    103  CH2       41.3920   31.7940   25.8650 C.ar  281  TRP281      0.0015
    104  N         43.9140   26.1540   25.8240 N.am  282  VAL282     -0.1980
    105  CA        43.7820   25.1870   26.9210 C.3   282  VAL282      0.1595
    106  C         42.8980   25.7010   28.0680 C.2   282  VAL282      0.2287
    107  O         42.6490   26.9050   28.1500 O.2   282  VAL282     -0.2864
    108  CB        45.1660   24.7650   27.4750 C.3   282  VAL282      0.0276
    109  CG1       46.0430   24.1600   26.3720 C.3   282  VAL282      0.0022
    110  CG2       45.8750   25.9330   28.1750 C.3   282  VAL282      0.0022
    111  N         43.2250   26.9110   30.9720 N.3   284  GLN284     -0.1245
    112  CA        44.3560   27.4270   31.7550 C.3   284  GLN284      0.1566
    113  C         44.1090   27.4420   33.2460 C.2   284  GLN284      0.2260
    114  O         44.9970   27.0730   34.0210 O.2   284  GLN284     -0.2867
    115  CB        44.7280   28.8330   31.2700 C.3   284  GLN284      0.0367
    116  CG        45.6910   29.5600   32.2240 C.3   284  GLN284      0.0905
    117  CD        46.2570   30.8000   31.6160 C.2   284  GLN284      0.2608
    118  OE1       46.6880   30.7790   30.4700 O.2   284  GLN284     -0.2717
    119  NE2       46.2690   31.9010   32.3750 N.am  284  GLN284     -0.0878
    120  N         53.1180   35.5320   29.6380 N.3   297  HIS297     -0.1241
    121  CA        53.4070   36.8960   29.2040 C.3   297  HIS297      0.1621
    122  C         53.1640   37.9150   30.3390 C.2   297  HIS297      0.2264
    123  O         53.4580   39.0940   30.1790 O.2   297  HIS297     -0.2867
    124  CB        52.5750   37.2490   27.9670 C.3   297  HIS297      0.0745
    125  CG        51.1150   37.4200   28.2420 C.ar  297  HIS297      0.0817
    126  ND1       50.4030   36.5930   29.0900 N.ar  297  HIS297     -0.2268
    127  CD2       50.2210   38.3080   27.7490 C.ar  297  HIS297      0.1154
    128  CE1       49.1410   36.9830   29.1330 C.ar  297  HIS297      0.1986
    129  NE2       49.0070   38.0270   28.3290 N.ar  297  HIS297     -0.2212
    130  N         50.2000   38.9180   31.4880 N.3   299  GLY299     -0.1210
    131  CA        48.9070   39.6220   31.4530 C.3   299  GLY299      0.1956
    132  C         48.3210   39.5700   32.8670 C.2   299  GLY299      0.2612
    133  O         48.6130   38.6280   33.6170 O.2   299  GLY299     -0.2717
    134  N         47.4680   40.5290   33.2360 N.am  300  MET300     -0.1965
    135  CA        46.9840   40.5450   34.6380 C.3   300  MET300      0.1736
    136  C         46.1340   39.3290   35.0090 C.2   300  MET300      0.2617
    137  O         46.2210   38.8190   36.1440 O.2   300  MET300     -0.2715
    138  CB        46.2130   41.8340   34.9530 C.3   300  MET300      0.0427
    139  CG        45.9460   42.0140   36.4790 C.3   300  MET300      0.0599
    140  SD        47.4450   42.2580   37.5280 S.3   300  MET300     -0.1393
    141  CE        47.8340   43.9580   37.0370 C.3   300  MET300      0.0692
    142  N         45.2740   38.8980   34.0870 N.am  301  GLY301     -0.1940
    143  CA        44.4130   37.7280   34.3450 C.3   301  GLY301      0.2014
    144  C         45.2560   36.4880   34.6290 C.2   301  GLY301      0.2639
    145  O         45.0310   35.7650   35.6160 O.2   301  GLY301     -0.2714
    146  N         46.2190   36.2410   33.7430 N.am  302  SER302     -0.1949
    147  CA        47.1020   35.0820   33.8930 C.3   302  SER302      0.1924
    148  C         47.9000   35.1600   35.2070 C.2   302  SER302      0.2314
    149  O         48.0410   34.1610   35.9230 O.2   302  SER302     -0.2863
    150  CB        48.0140   34.9320   32.6760 C.3   302  SER302      0.2116
    151  OG        47.2300   34.6170   31.5330 O.3   302  SER302     -0.2180
    152  N         45.4860   34.4890   38.1130 N.3   305  GLU305     -0.1245
    153  CA        45.1370   33.0500   38.1760 C.3   305  GLU305      0.1567
    154  C         46.2870   32.1960   38.7670 C.2   305  GLU305      0.2260
    155  O         46.0750   31.3040   39.6190 O.2   305  GLU305     -0.2867
    156  CB        44.7070   32.5250   36.8170 C.3   305  GLU305      0.0388
    157  CG        43.3880   33.1590   36.3070 C.3   305  GLU305      0.1160
    158  CD        43.1840   33.0240   34.8080 C.2   305  GLU305      0.3649
    159  OE1       44.0120   32.3780   34.1330 O.co2 305  GLU305     -0.2457
    160  OE2       42.1710   33.5750   34.3040 O.co2 305  GLU305     -0.2457
    161  N         52.4010   44.5280   30.2700 N.3   322  GLN322     -0.1245
    162  CA        52.9260   43.2530   30.7650 C.3   322  GLN322      0.1566
    163  C         54.3150   43.3930   31.3680 C.2   322  GLN322      0.2260
    164  O         54.6300   42.7230   32.3370 O.2   322  GLN322     -0.2867
    165  CB        52.9070   42.2200   29.6570 C.3   322  GLN322      0.0367
    166  CG        51.4690   41.7970   29.3500 C.3   322  GLN322      0.0905
    167  CD        51.2570   41.5020   27.9030 C.2   322  GLN322      0.2608
    168  OE1       52.2030   41.3290   27.1300 O.2   322  GLN322     -0.2717
    169  NE2       49.9930   41.4600   27.5010 N.am  322  GLN322     -0.0878
@<TRIPOS>BOND
     1    71    70    2
     2    81    79   ar
     3    81    83   ar
     4    79    78   ar
     5    70    69    1
     6    70    73   am
     7    75    74    1
     8    75    76    2
     9    74    73    1
    10    74    77    1
    11    83    82   ar
    12    69    72    1
    13    69    68    1
    14    78    77    1
    15    78    80   ar
    16    65    64    2
    17    90    91    1
    18    94    91    1
    19    94    95    1
    20    82    80   ar
    21    64    68   am
    22    64    63    1
    23    86    87    2
    24    86    85    1
    25    91    92    1
    26    95    97   ar
    27    95    96   ar
    28    93    92    2
    29    10     8   ar
    30    10     9   ar
    31   100    97   ar
    32   100   102   ar
    33    63    66    1
    34    63    62    1
    35    85    84    1
    36    85    88    1
    37    97    99   ar
    38    96    98   ar
    39    92   104   am
    40     8     6   ar
    41    89    88    1
    42    66    67    1
    43    61    60    2
    44   102   103   ar
    45    98    99   ar
    46    99   101   ar
    47     9     7   ar
    48    62    60   am
    49    60    59    1
    50     1     2    1
    51   104   105    1
    52   103   101   ar
    53     6     7   ar
    54     6     5    1
    55   109   108    1
    56    58    59    1
    57     5     2    1
    58   105   108    1
    59   105   106    1
    60     2     3    1
    61   168   167    2
    62   108   110    1
    63   169   167   am
    64    54    55    1
    65    54    57    1
    66    54    53    1
    67    55    56    2
    68    22    24   ar
    69    22    20   ar
    70    24    23   ar
    71   127   125   ar
    72   127   129   ar
    73   167   166    1
    74   124   125    1
    75   124   121    1
    76   106   107    2
    77    11     3   am
    78    11    12    1
    79    23    21   ar
    80    20    19    1
    81    20    21   ar
    82   125   126   ar
    83     3     4    2
    84   129   128   ar
    85    19    16    1
    86    52    50   am
    87    15    16    1
    88    15    13   am
    89   126   128   ar
    90   121   120    1
    91   121   122    1
    92    47    46    2
    93    12    13    1
    94   166   165    1
    95    49    50    1
    96    49    48    1
    97    16    17    1
    98   165   162    1
    99    50    51    2
   100    45    46    1
   101    45    48    1
   102    45    44    1
   103    13    14    2
   104    17    18    2
   105   123   122    2
   106   161   162    1
   107    31    30    2
   108   118   117    2
   109    32    30   am
   110   162   163    1
   111    30    29    1
   112   111   112    1
   113    25    26    1
   114   115   112    1
   115   115   116    1
   116   163   164    2
   117   131   130    1
   118   131   132    1
   119   151   150    1
   120   117   116    1
   121   117   119   am
   122   112   113    1
   123    29    26    1
   124    26    27    1
   125   150   147    1
   126   132   134   am
   127   132   133    2
   128    39    38    1
   129    39    40    1
   130    38    37    1
   131    36    35    2
   132   134   135    1
   133   113   114    2
   134    42    41    1
   135    27    28    2
   136    40    41    2
   137   146   147    1
   138   146   144   am
   139    41    43    1
   140   147   148    1
   141   142   143    1
   142   142   136   am
   143    35    34    1
   144   159   158   ar
   145   160   158   ar
   146    37    34    1
   147   143   144    1
   148   144   145    2
   149   135   138    1
   150   135   136    1
   151    34    33    1
   152   158   157    1
   153   138   139    1
   154   136   137    2
   155   148   149    2
   156   157   156    1
   157   139   140    1
   158   156   153    1
   159   141   140    1
   160   152   153    1
   161   153   154    1
   162   154   155    2
