@<TRIPOS>MOLECULE
tmp/2iyfB01.pdb
 139 132 0 0 0
SMALL
GASTEIGER

@<TRIPOS>ATOM
      1  N        -51.9090  -32.4880   -4.8140 N.3   211  GLN211     -0.1245
      2  CA       -52.7380  -33.4480   -5.5380 C.3   211  GLN211      0.1566
      3  C        -53.6660  -34.1710   -4.5910 C.2   211  GLN211      0.2260
      4  O        -53.4170  -34.2230   -3.3780 O.2   211  GLN211     -0.2867
      5  CB       -51.8720  -34.4640   -6.2810 C.3   211  GLN211      0.0367
      6  CG       -50.9610  -33.8340   -7.3320 C.3   211  GLN211      0.0905
      7  CD       -50.2790  -34.8630   -8.2130 C.2   211  GLN211      0.2608
      8  OE1      -49.6550  -34.5120   -9.2340 O.2   211  GLN211     -0.2717
      9  NE2      -50.3850  -36.1450   -7.8300 N.am  211  GLN211     -0.0878
     10  N        -54.2240  -40.6350   -5.0360 N.3   214  ARG214     -0.1245
     11  CA       -54.2700  -41.3340   -6.3280 C.3   214  ARG214      0.1563
     12  C        -54.2860  -42.8710   -6.2310 C.2   214  ARG214      0.2260
     13  O        -54.0330  -43.5760   -7.2210 O.2   214  ARG214     -0.2867
     14  CB       -53.1440  -40.8240   -7.2410 C.3   214  ARG214      0.0307
     15  CG       -53.3400  -39.3610   -7.6500 C.3   214  ARG214      0.0489
     16  CD       -52.1330  -38.7800   -8.3650 C.3   214  ARG214      0.2205
     17  NE       -51.9520  -39.3690   -9.6870 N.pl3 214  ARG214     -0.0865
     18  CZ       -51.0990  -38.9190  -10.6050 C.cat 214  ARG214      0.5346
     19  NH1      -50.9930  -39.5380  -11.7850 N.pl3 214  ARG214      0.1354
     20  NH2      -50.3470  -37.8570  -10.3450 N.pl3 214  ARG214      0.1354
     21  N        -56.2260  -44.8560   -8.9280 N.3   217  GLU217     -0.1245
     22  CA       -55.5940  -45.1630  -10.2220 C.3   217  GLU217      0.1567
     23  C        -55.0150  -46.5700  -10.3060 C.2   217  GLU217      0.2260
     24  O        -54.7660  -47.0810  -11.3990 O.2   217  GLU217     -0.2867
     25  CB       -54.5310  -44.1160  -10.5650 C.3   217  GLU217      0.0388
     26  CG       -55.1400  -42.7530  -10.8580 C.3   217  GLU217      0.1160
     27  CD       -54.1070  -41.6550  -11.0250 C.2   217  GLU217      0.3649
     28  OE1      -52.9260  -41.9670  -11.3220 O.co2 217  GLU217     -0.2457
     29  OE2      -54.5000  -40.4770  -10.8540 O.co2 217  GLU217     -0.2457
     30  N        -48.1150  -36.5630  -21.1760 N.3   235  GLY235     -0.1210
     31  CA       -49.2300  -35.9880  -20.4270 C.3   235  GLY235      0.1956
     32  C        -50.5800  -36.3860  -20.9920 C.2   235  GLY235      0.2613
     33  O        -50.7400  -37.5070  -21.5030 O.2   235  GLY235     -0.2717
     34  N        -51.5460  -35.4810  -20.8800 N.am  236  SER236     -0.1938
     35  CA       -52.9190  -35.7940  -21.2590 C.3   236  SER236      0.2055
     36  C        -53.4200  -35.1120  -22.5410 C.2   236  SER236      0.2643
     37  O        -54.4870  -35.4790  -23.0500 O.2   236  SER236     -0.2714
     38  CB       -53.8650  -35.5480  -20.0820 C.3   236  SER236      0.2130
     39  OG       -53.9330  -34.1720  -19.7420 O.3   236  SER236     -0.2179
     40  N        -52.6520  -34.1570  -23.0760 N.am  237  ALA237     -0.1963
     41  CA       -53.1140  -33.3340  -24.2070 C.3   237  ALA237      0.1728
     42  C        -52.2330  -33.3540  -25.4640 C.2   237  ALA237      0.2616
     43  O        -52.7210  -33.6030  -26.5850 O.2   237  ALA237     -0.2715
     44  CB       -53.3360  -31.8820  -23.7350 C.3   237  ALA237      0.0334
     45  N        -50.9370  -33.1070  -25.2760 N.am  238  PHE238     -0.1974
     46  CA       -50.0080  -32.8940  -26.3840 C.3   238  PHE238      0.1639
     47  C        -49.3690  -34.2110  -26.7460 C.2   238  PHE238      0.2290
     48  O        -48.1420  -34.3630  -26.7170 O.2   238  PHE238     -0.2864
     49  CB       -48.9500  -31.8370  -26.0090 C.3   238  PHE238      0.0560
     50  CG       -49.5260  -30.4710  -25.8090 C.ar  238  PHE238     -0.0200
     51  CD1      -49.8070  -30.0020  -24.5310 C.ar  238  PHE238     -0.0042
     52  CD2      -49.8360  -29.6650  -26.9090 C.ar  238  PHE238     -0.0042
     53  CE1      -50.3800  -28.7410  -24.3470 C.ar  238  PHE238     -0.0003
     54  CE2      -50.4090  -28.4080  -26.7370 C.ar  238  PHE238     -0.0003
     55  CZ       -50.6710  -27.9410  -25.4560 C.ar  238  PHE238     -0.0000
     56  N        -47.0190  -44.4890  -23.0790 N.3   263  GLN263     -0.1245
     57  CA       -48.3590  -43.9420  -22.9340 C.3   263  GLN263      0.1566
     58  C        -48.6100  -43.0280  -24.1370 C.2   263  GLN263      0.2260
     59  O        -47.9650  -41.9740  -24.2700 O.2   263  GLN263     -0.2867
     60  CB       -48.4400  -43.1580  -21.6100 C.3   263  GLN263      0.0367
     61  CG       -49.7860  -42.6620  -21.1840 C.3   263  GLN263      0.0905
     62  CD       -50.2200  -41.3540  -21.8600 C.2   263  GLN263      0.2608
     63  OE1      -51.1540  -41.3420  -22.6570 O.2   263  GLN263     -0.2717
     64  NE2      -49.5430  -40.2530  -21.5370 N.am  263  GLN263     -0.0878
     65  N        -53.4600  -44.7330  -21.4630 N.3   285  TRP285     -0.1227
     66  CA       -53.4300  -44.0660  -20.1630 C.3   285  TRP285      0.1737
     67  C        -52.7080  -45.0120  -19.2080 C.2   285  TRP285      0.2595
     68  O        -52.8340  -46.2390  -19.3180 O.2   285  TRP285     -0.2718
     69  CB       -54.8460  -43.7150  -19.6390 C.3   285  TRP285      0.0564
     70  CG       -54.8740  -43.1530  -18.2200 C.ar  285  TRP285      0.0003
     71  CD1      -54.8820  -41.8300  -17.8580 C.ar  285  TRP285      0.0946
     72  CD2      -54.8740  -43.9030  -16.9890 C.ar  285  TRP285      0.0152
     73  NE1      -54.8920  -41.7070  -16.4730 N.ar  285  TRP285     -0.2442
     74  CE2      -54.8790  -42.9640  -15.9220 C.ar  285  TRP285      0.0810
     75  CE3      -54.8620  -45.2780  -16.6830 C.ar  285  TRP285      0.0012
     76  CZ2      -54.8870  -43.3570  -14.5690 C.ar  285  TRP285      0.0191
     77  CZ3      -54.8540  -45.6710  -15.3380 C.ar  285  TRP285      0.0001
     78  CH2      -54.8770  -44.7080  -14.2980 C.ar  285  TRP285      0.0015
     79  N        -51.9140  -44.4560  -18.2940 N.am  286  VAL286     -0.1980
     80  CA       -51.2180  -45.2710  -17.2960 C.3   286  VAL286      0.1595
     81  C        -51.3900  -44.6540  -15.8870 C.2   286  VAL286      0.2287
     82  O        -51.6400  -43.4520  -15.7600 O.2   286  VAL286     -0.2864
     83  CB       -49.6970  -45.4480  -17.6260 C.3   286  VAL286      0.0276
     84  CG1      -49.4950  -46.1220  -18.9900 C.3   286  VAL286      0.0022
     85  CG2      -48.9580  -44.0980  -17.5730 C.3   286  VAL286      0.0022
     86  N        -49.6290  -43.0490  -13.7150 N.3   288  GLN288     -0.1245
     87  CA       -48.2970  -42.4970  -13.9560 C.3   288  GLN288      0.1566
     88  C        -47.4630  -42.3770  -12.6980 C.2   288  GLN288      0.2260
     89  O        -46.2810  -42.6560  -12.7180 O.2   288  GLN288     -0.2867
     90  CB       -48.4180  -41.1400  -14.6590 C.3   288  GLN288      0.0367
     91  CG       -47.0720  -40.4150  -14.8830 C.3   288  GLN288      0.0905
     92  CD       -47.1900  -39.3270  -15.9320 C.2   288  GLN288      0.2608
     93  OE1      -47.6240  -39.5980  -17.0480 O.2   288  GLN288     -0.2717
     94  NE2      -46.8230  -38.0800  -15.5720 N.am  288  GLN288     -0.0878
     95  N        -42.9780  -34.5850  -21.4180 N.3   301  HIS301     -0.1241
     96  CA       -43.1210  -33.3030  -22.1320 C.3   301  HIS301      0.1621
     97  C        -42.8690  -32.1270  -21.1730 C.2   301  HIS301      0.2264
     98  O        -42.9550  -30.9620  -21.5680 O.2   301  HIS301     -0.2867
     99  CB       -44.5120  -33.1620  -22.7850 C.3   301  HIS301      0.0745
    100  CG       -45.6260  -32.9260  -21.8070 C.ar  301  HIS301      0.0817
    101  ND1      -45.8110  -33.7020  -20.6740 N.ar  301  HIS301     -0.2268
    102  CD2      -46.6420  -32.0310  -21.8160 C.ar  301  HIS301      0.1154
    103  CE1      -46.8680  -33.2610  -20.0130 C.ar  301  HIS301      0.1986
    104  NE2      -47.4000  -32.2630  -20.6950 N.ar  301  HIS301     -0.2212
    105  N        -44.7850  -30.9060  -18.6690 N.3   303  GLY303     -0.1210
    106  CA       -45.8790  -30.1530  -18.0460 C.3   303  GLY303      0.1956
    107  C        -45.5730  -30.0500  -16.5650 C.2   303  GLY303      0.2612
    108  O        -44.7140  -30.8120  -16.0540 O.2   303  GLY303     -0.2717
    109  N        -46.2240  -29.1190  -15.8620 N.am  304  ALA304     -0.1965
    110  CA       -45.9280  -28.8920  -14.4380 C.3   304  ALA304      0.1728
    111  C        -46.1200  -30.1720  -13.5900 C.2   304  ALA304      0.2617
    112  O        -45.3090  -30.4850  -12.7060 O.2   304  ALA304     -0.2715
    113  CB       -46.7680  -27.7430  -13.8820 C.3   304  ALA304      0.0334
    114  N        -47.1780  -30.9290  -13.8870 N.am  305  GLY305     -0.1940
    115  CA       -47.4390  -32.2020  -13.1650 C.3   305  GLY305      0.2014
    116  C        -46.3350  -33.2170  -13.3250 C.2   305  GLY305      0.2639
    117  O        -45.7680  -33.6940  -12.3310 O.2   305  GLY305     -0.2714
    118  N        -46.0530  -33.5860  -14.5740 N.am  306  GLY306     -0.1954
    119  CA       -44.9980  -34.5430  -14.8900 C.3   306  GLY306      0.1869
    120  C        -43.6290  -34.1280  -14.3480 C.2   306  GLY306      0.2309
    121  O        -42.9200  -34.9400  -13.7950 O.2   306  GLY306     -0.2863
    122  N        -43.6880  -34.6840  -10.6210 N.3   309  GLU309     -0.1245
    123  CA       -43.7370  -36.1340  -10.3420 C.3   309  GLU309      0.1567
    124  C        -42.4080  -36.8410  -10.5820 C.2   309  GLU309      0.2260
    125  O        -42.0170  -37.7590   -9.8210 O.2   309  GLU309     -0.2867
    126  CB       -44.8220  -36.8100  -11.1630 C.3   309  GLU309      0.0388
    127  CG       -46.2000  -36.5040  -10.6620 C.3   309  GLU309      0.1160
    128  CD       -47.2960  -36.6800  -11.7100 C.2   309  GLU309      0.3649
    129  OE1      -47.0620  -37.3060  -12.7670 O.co2 309  GLU309     -0.2457
    130  OE2      -48.4050  -36.1800  -11.4470 O.co2 309  GLU309     -0.2457
    131  N        -44.1060  -25.6660  -21.2430 N.3   326  GLN326     -0.1245
    132  CA       -43.2590  -26.8400  -21.0860 C.3   326  GLN326      0.1566
    133  C        -41.7830  -26.5650  -21.3970 C.2   326  GLN326      0.2260
    134  O        -40.8940  -27.1630  -20.7940 O.2   326  GLN326     -0.2867
    135  CB       -43.7960  -27.9770  -21.9440 C.3   326  GLN326      0.0367
    136  CG       -45.1590  -28.4500  -21.4580 C.3   326  GLN326      0.0905
    137  CD       -46.0730  -28.8360  -22.5860 C.2   326  GLN326      0.2608
    138  OE1      -47.3050  -28.7540  -22.4600 O.2   326  GLN326     -0.2717
    139  NE2      -45.5010  -29.2870  -23.6760 N.am  326  GLN326     -0.0878
@<TRIPOS>BOND
     1    52    54   ar
     2    52    50   ar
     3    47    48    2
     4    47    46    1
     5    54    55   ar
     6    43    42    2
     7    46    49    1
     8    46    45    1
     9    49    50    1
    10    50    51   ar
    11    42    45   am
    12    42    41    1
    13    55    53   ar
    14    51    53   ar
    15    59    58    2
    16    41    44    1
    17    41    40    1
    18    58    57    1
    19   139   137   am
    20    56    57    1
    21    40    36   am
    22    37    36    2
    23    57    60    1
    24    99    96    1
    25    99   100    1
    26    63    62    2
    27   137   138    2
    28   137   136    1
    29    36    35    1
    30    96    95    1
    31    96    97    1
    32   135   136    1
    33   135   132    1
    34    62    64   am
    35    62    61    1
    36   102   100   ar
    37   102   104   ar
    38   100   101   ar
    39    60    61    1
    40    98    97    2
    41    33    32    2
    42    65    66    1
    43   133   132    1
    44   133   134    2
    45    35    34    1
    46    35    38    1
    47   131   132    1
    48    30    31    1
    49    32    34   am
    50    32    31    1
    51   104   103   ar
    52   101   103   ar
    53    66    69    1
    54    66    67    1
    55    38    39    1
    56    69    70    1
    57    68    67    2
    58    67    79   am
    59    84    83    1
    60   105   106    1
    61    79    80    1
    62    70    71   ar
    63    70    72   ar
    64   106   107    1
    65    71    73   ar
    66    83    85    1
    67    83    80    1
    68    80    81    1
    69    93    92    2
    70    72    75   ar
    71    72    74   ar
    72    75    77   ar
    73   107   108    2
    74   107   109   am
    75    73    74   ar
    76    92    94   am
    77    92    91    1
    78    74    76   ar
    79    81    82    2
    80   109   110    1
    81    77    78   ar
    82   119   118    1
    83   119   120    1
    84    91    90    1
    85    90    87    1
    86   118   116   am
    87    76    78   ar
    88   110   113    1
    89   110   111    1
    90   120   121    2
    91    87    86    1
    92    87    88    1
    93   114   111   am
    94   114   115    1
    95   111   112    2
    96   116   115    1
    97   116   117    2
    98   129   128   ar
    99    89    88    2
   100    19    18    1
   101   128   130   ar
   102   128   127    1
   103    24    23    2
   104    28    27   ar
   105   126   127    1
   106   126   123    1
   107    27    26    1
   108    27    29   ar
   109    26    25    1
   110   122   123    1
   111    18    20    1
   112    18    17    2
   113   124   123    1
   114   124   125    2
   115    25    22    1
   116    23    22    1
   117    22    21    1
   118    17    16    1
   119     8     7    2
   120    16    15    1
   121     7     9   am
   122     7     6    1
   123    15    14    1
   124     6     5    1
   125    14    11    1
   126    13    12    2
   127    11    12    1
   128    11    10    1
   129     5     2    1
   130     2     1    1
   131     2     3    1
   132     3     4    2
