@<TRIPOS>MOLECULE
tmp/2iyfB00.pdb
 188 180 0 0 0
SMALL
GASTEIGER

@<TRIPOS>ATOM
      1  N        -60.9600  -17.2030  -10.2890 N.3    10  ILE10      -0.1245
      2  CA       -61.5290  -16.8470  -11.6010 C.3    10  ILE10       0.1561
      3  C        -61.8540  -18.1900  -12.2680 C.2    10  ILE10       0.2260
      4  O        -61.3980  -19.2480  -11.8120 O.2    10  ILE10      -0.2867
      5  CB       -60.5240  -16.0040  -12.4720 C.3    10  ILE10       0.0252
      6  CG1      -59.2610  -16.8100  -12.8140 C.3    10  ILE10       0.0019
      7  CG2      -60.1650  -14.6690  -11.7450 C.3    10  ILE10       0.0019
      8  CD1      -58.4040  -16.2510  -13.9800 C.3    10  ILE10       0.0001
      9  N        -60.8380  -20.2800  -14.4820 N.3    12  ALA12      -0.1245
     10  CA       -59.7490  -20.8000  -15.2990 C.3    12  ALA12       0.1562
     11  C        -59.2090  -22.0250  -14.6180 C.2    12  ALA12       0.2260
     12  O        -58.9610  -22.0260  -13.4030 O.2    12  ALA12      -0.2867
     13  CB       -58.6300  -19.7360  -15.4740 C.3    12  ALA12       0.0290
     14  N        -56.3640  -23.5240  -14.6170 N.3    14  GLY14      -0.1210
     15  CA       -55.0260  -23.3860  -14.0440 C.3    14  GLY14       0.1956
     16  C        -54.9660  -22.5670  -12.7860 C.2    14  GLY14       0.2611
     17  O        -53.9160  -22.4920  -12.1440 O.2    14  GLY14      -0.2717
     18  N        -56.0690  -21.9030  -12.4540 N.am   15  HIS15      -0.1975
     19  CA       -56.1280  -21.1050  -11.2350 C.3    15  HIS15       0.1656
     20  C        -57.1210  -21.6250  -10.2140 C.2    15  HIS15       0.2291
     21  O        -57.3580  -21.0020   -9.1690 O.2    15  HIS15      -0.2864
     22  CB       -56.3580  -19.6410  -11.5960 C.3    15  HIS15       0.0771
     23  CG       -55.2010  -19.0470  -12.3410 C.ar   15  HIS15       0.0820
     24  ND1      -53.9870  -18.7800  -11.7360 N.ar   15  HIS15      -0.2267
     25  CD2      -55.0430  -18.7320  -13.6510 C.ar   15  HIS15       0.1154
     26  CE1      -53.1430  -18.3030  -12.6320 C.ar   15  HIS15       0.1986
     27  NE2      -53.7610  -18.2540  -13.8000 N.ar   15  HIS15      -0.2212
     28  N        -55.9200  -20.1580  -25.9570 N.3    66  PRO66      -0.2116
     29  CA       -54.9060  -19.2910  -25.3400 C.3    66  PRO66       0.1372
     30  C        -54.8450  -17.8730  -25.9350 C.2    66  PRO66       0.2244
     31  O        -54.5410  -16.9100  -25.2130 O.2    66  PRO66      -0.2868
     32  CB       -53.5830  -20.0500  -25.5690 C.3    66  PRO66       0.0268
     33  CG       -53.9180  -21.2300  -26.4350 C.3    66  PRO66       0.0207
     34  CD       -55.3790  -21.4910  -26.2700 C.3    66  PRO66       0.0892
     35  N        -56.4030  -14.6250  -24.5040 N.3    69  TRP69      -0.1227
     36  CA       -55.7880  -14.0110  -23.3240 C.3    69  TRP69       0.1737
     37  C        -54.6650  -13.0570  -23.7010 C.2    69  TRP69       0.2596
     38  O        -53.9550  -12.5540  -22.8200 O.2    69  TRP69      -0.2718
     39  CB       -55.2330  -15.0850  -22.3800 C.3    69  TRP69       0.0564
     40  CG       -56.2610  -15.9100  -21.6930 C.ar   69  TRP69       0.0003
     41  CD1      -56.7670  -17.0960  -22.1230 C.ar   69  TRP69       0.0946
     42  CD2      -56.9020  -15.6300  -20.4380 C.ar   69  TRP69       0.0152
     43  NE1      -57.6880  -17.5760  -21.2270 N.ar   69  TRP69      -0.2442
     44  CE2      -57.7940  -16.6960  -20.1820 C.ar   69  TRP69       0.0810
     45  CE3      -56.8080  -14.5850  -19.5060 C.ar   69  TRP69       0.0012
     46  CZ2      -58.5970  -16.7500  -19.0310 C.ar   69  TRP69       0.0191
     47  CZ3      -57.6070  -14.6350  -18.3670 C.ar   69  TRP69       0.0001
     48  CH2      -58.4890  -15.7140  -18.1370 C.ar   69  TRP69       0.0015
     49  N        -54.4980  -12.8200  -25.0020 N.am   70  GLY70      -0.1957
     50  CA       -53.5000  -11.8840  -25.5020 C.3    70  GLY70       0.1869
     51  C        -52.1530  -12.4760  -25.8770 C.2    70  GLY70       0.2309
     52  O        -51.7990  -13.5720  -25.4250 O.2    70  GLY70      -0.2863
     53  N        -52.0680   -9.3030  -21.9960 N.3    76  ASN76      -0.1225
     54  CA       -52.0790  -10.3430  -20.9270 C.3    76  ASN76       0.1785
     55  C        -52.5840   -9.7950  -19.5960 C.2    76  ASN76       0.2597
     56  O        -53.4350  -10.4070  -18.9460 O.2    76  ASN76      -0.2718
     57  CB       -50.6920  -10.9630  -20.7580 C.3    76  ASN76       0.1169
     58  CG       -50.2900  -11.8630  -21.9190 C.2    76  ASN76       0.2627
     59  OD1      -51.1050  -12.2600  -22.7470 O.2    76  ASN76      -0.2716
     60  ND2      -49.0310  -12.2050  -21.9640 N.am   76  ASN76      -0.0877
     61  N        -52.0640   -8.6380  -19.1810 N.am   77  VAL77      -0.1980
     62  CA       -52.3500   -8.1340  -17.8200 C.3    77  VAL77       0.1595
     63  C        -53.6050   -7.2760  -17.6590 C.2    77  VAL77       0.2287
     64  O        -54.3000   -7.3630  -16.6570 O.2    77  VAL77      -0.2864
     65  CB       -51.1050   -7.4290  -17.1800 C.3    77  VAL77       0.0276
     66  CG1      -49.8920   -8.2920  -17.3860 C.3    77  VAL77       0.0022
     67  CG2      -50.8930   -6.0470  -17.7870 C.3    77  VAL77       0.0022
     68  N        -57.1140   -8.4590  -16.1450 N.3    80  PHE80      -0.1241
     69  CA       -57.2270   -8.7750  -14.7160 C.3    80  PHE80       0.1605
     70  C        -57.5960   -7.5380  -13.9160 C.2    80  PHE80       0.2264
     71  O        -58.3360   -7.6210  -12.9270 O.2    80  PHE80      -0.2867
     72  CB       -55.9260   -9.4430  -14.2030 C.3    80  PHE80       0.0534
     73  CG       -55.6470  -10.7750  -14.8510 C.ar   80  PHE80      -0.0203
     74  CD1      -54.8320  -10.8810  -15.9710 C.ar   80  PHE80      -0.0042
     75  CD2      -56.2510  -11.9440  -14.3570 C.ar   80  PHE80      -0.0042
     76  CE1      -54.5990  -12.1070  -16.5910 C.ar   80  PHE80      -0.0003
     77  CE2      -56.0350  -13.1670  -14.9730 C.ar   80  PHE80      -0.0003
     78  CZ       -55.2150  -13.2770  -16.0750 C.ar   80  PHE80      -0.0000
     79  N        -53.5950  -16.0360   -7.3060 N.3   107  ILE107     -0.1231
     80  CA       -52.8590  -14.8160   -7.6920 C.3   107  ILE107      0.1692
     81  C        -53.6450  -13.8610   -8.5930 C.2   107  ILE107      0.2592
     82  O        -53.3890  -12.6480   -8.5920 O.2   107  ILE107     -0.2718
     83  CB       -51.4710  -15.1580   -8.3210 C.3   107  ILE107      0.0266
     84  CG1      -51.5980  -16.1770   -9.4630 C.3   107  ILE107      0.0019
     85  CG2      -50.5410  -15.6790   -7.2150 C.3   107  ILE107      0.0020
     86  CD1      -50.3590  -16.4050  -10.3060 C.3   107  ILE107      0.0001
     87  N        -54.5870  -14.4040   -9.3480 N.am  108  THR108     -0.1953
     88  CA       -55.2970  -13.5880  -10.3550 C.3   108  THR108      0.1897
     89  C        -56.3900  -12.6740   -9.7570 C.2   108  THR108      0.2313
     90  O        -56.9050  -11.7520  -10.4410 O.2   108  THR108     -0.2863
     91  CB       -55.8950  -14.4660  -11.4560 C.3   108  THR108      0.1794
     92  OG1      -56.8780  -15.3400  -10.8860 O.3   108  THR108     -0.2208
     93  CG2      -54.8230  -15.2680  -12.2240 C.3   108  THR108      0.0378
     94  N        -57.4660   -9.7570   -7.8650 N.3   110  TYR110     -0.1241
     95  CA       -57.1900   -8.4850   -7.1780 C.3   110  TYR110      0.1605
     96  C        -58.2720   -8.1220   -6.1220 C.2   110  TYR110      0.2264
     97  O        -57.9430   -7.5100   -5.0830 O.2   110  TYR110     -0.2867
     98  CB       -57.0120   -7.3060   -8.1810 C.3   110  TYR110      0.0534
     99  CG       -55.9050   -7.4850   -9.2020 C.ar  110  TYR110     -0.0201
    100  CD1      -54.7810   -8.3010   -8.9540 C.ar  110  TYR110     -0.0009
    101  CD2      -55.9530   -6.8030  -10.4190 C.ar  110  TYR110     -0.0009
    102  CE1      -53.7410   -8.4560   -9.9210 C.ar  110  TYR110      0.0417
    103  CE2      -54.9390   -6.9470  -11.3750 C.ar  110  TYR110      0.0417
    104  CZ       -53.8370   -7.7690  -11.1320 C.ar  110  TYR110      0.1957
    105  OH       -52.8560   -7.8760  -12.1100 O.3   110  TYR110     -0.2866
    106  N        -57.4940   -9.2520   -2.5060 N.3   113  ARG113     -0.1245
    107  CA       -56.4890   -8.4300   -1.8390 C.3   113  ARG113      0.1563
    108  C        -57.1470   -7.1920   -1.2500 C.2   113  ARG113      0.2260
    109  O        -56.8870   -6.8400   -0.1110 O.2   113  ARG113     -0.2867
    110  CB       -55.4440   -7.9820   -2.8450 C.3   113  ARG113      0.0307
    111  CG       -54.6050   -9.1100   -3.4960 C.3   113  ARG113      0.0489
    112  CD       -53.8570   -8.4910   -4.6960 C.3   113  ARG113      0.2205
    113  NE       -52.8810   -9.2730   -5.5000 N.pl3 113  ARG113     -0.0865
    114  CZ       -53.1320  -10.3040   -6.3110 C.cat 113  ARG113      0.5346
    115  NH1      -54.3420  -10.8410   -6.4100 N.pl3 113  ARG113      0.1354
    116  NH2      -52.1280  -10.7890   -7.0540 N.pl3 113  ARG113      0.1354
    117  N        -50.1200  -19.5240   -5.0530 N.3   127  SER127     -0.1217
    118  CA       -49.5240  -19.3820   -6.3910 C.3   127  SER127      0.1889
    119  C        -49.3350  -20.7270   -7.0540 C.2   127  SER127      0.2288
    120  O        -48.6100  -21.5890   -6.5150 O.2   127  SER127     -0.2866
    121  CB       -48.1710  -18.6590   -6.3340 C.3   127  SER127      0.2089
    122  OG       -47.6100  -18.5180   -7.6420 O.3   127  SER127     -0.2183
    123  N        -47.5790  -21.2960   -9.6140 N.3   129  ASN129     -0.1225
    124  CA       -46.3880  -21.1750  -10.4680 C.3   129  ASN129      0.1785
    125  C        -45.3430  -20.3900   -9.6900 C.2   129  ASN129      0.2597
    126  O        -45.5760  -20.0270   -8.5400 O.2   129  ASN129     -0.2718
    127  CB       -46.7500  -20.4590  -11.7910 C.3   129  ASN129      0.1169
    128  CG       -47.5420  -19.1710  -11.5680 C.2   129  ASN129      0.2627
    129  OD1      -47.0210  -18.1870  -11.0310 O.2   129  ASN129     -0.2716
    130  ND2      -48.8150  -19.1830  -11.9460 N.am  129  ASN129     -0.0877
    131  N        -44.2050  -20.1150  -10.3220 N.am  130  LEU130     -0.1966
    132  CA       -43.1170  -19.3920   -9.6350 C.3   130  LEU130      0.1728
    133  C        -43.5950  -18.0510   -9.0950 C.2   130  LEU130      0.2616
    134  O        -44.5730  -17.4740   -9.5710 O.2   130  LEU130     -0.2715
    135  CB       -41.9090  -19.2070  -10.5800 C.3   130  LEU130      0.0311
    136  CG       -42.2140  -18.3630  -11.8400 C.3   130  LEU130      0.0022
    137  CD1      -41.8180  -16.9340  -11.5810 C.3   130  LEU130      0.0001
    138  CD2      -41.5170  -18.9090  -13.0750 C.3   130  LEU130      0.0001
    139  N        -42.8700  -17.5540   -8.1000 N.am  131  VAL131     -0.1963
    140  CA       -43.1420  -16.2630   -7.4850 C.3   131  VAL131      0.1727
    141  C        -41.9470  -15.3320   -7.6790 C.2   131  VAL131      0.2616
    142  O        -40.8850  -15.7420   -8.1300 O.2   131  VAL131     -0.2715
    143  CB       -43.4390  -16.3960   -5.9930 C.3   131  VAL131      0.0290
    144  CG1      -44.7230  -17.1470   -5.7930 C.3   131  VAL131      0.0023
    145  CG2      -42.2630  -17.0880   -5.2250 C.3   131  VAL131      0.0023
    146  N        -42.1470  -14.0760   -7.2920 N.am  132  ALA132     -0.1977
    147  CA       -41.1040  -13.0730   -7.3640 C.3   132  ALA132      0.1597
    148  C        -40.0250  -13.3170   -6.3100 C.2   132  ALA132      0.2287
    149  O        -40.3170  -13.6190   -5.1570 O.2   132  ALA132     -0.2864
    150  CB       -41.7330  -11.7140   -7.2010 C.3   132  ALA132      0.0319
    151  N        -36.5090   -9.3610   -8.5550 N.3   136  TYR136     -0.1241
    152  CA       -37.4340   -9.5790   -9.6590 C.3   136  TYR136      0.1605
    153  C        -37.8970   -8.2720  -10.2900 C.2   136  TYR136      0.2264
    154  O        -38.0770   -8.1970  -11.5060 O.2   136  TYR136     -0.2867
    155  CB       -38.6520  -10.3410   -9.1570 C.3   136  TYR136      0.0534
    156  CG       -39.7210  -10.6410  -10.1870 C.ar  136  TYR136     -0.0201
    157  CD1      -40.7950   -9.7680  -10.3680 C.ar  136  TYR136     -0.0009
    158  CD2      -39.6960  -11.8190  -10.9210 C.ar  136  TYR136     -0.0009
    159  CE1      -41.7980  -10.0590  -11.2710 C.ar  136  TYR136      0.0417
    160  CE2      -40.6870  -12.1150  -11.8450 C.ar  136  TYR136      0.0417
    161  CZ       -41.7410  -11.2280  -12.0130 C.ar  136  TYR136      0.1957
    162  OH       -42.7550  -11.5240  -12.9270 O.3   136  TYR136     -0.2866
    163  N        -49.8790   -6.0960   -6.9930 N.3   178  ALA178     -0.1231
    164  CA       -50.1220   -7.2620   -7.8690 C.3   178  ALA178      0.1694
    165  C        -49.1410   -8.4300   -7.6640 C.2   178  ALA178      0.2592
    166  O        -49.5530   -9.6080   -7.6090 O.2   178  ALA178     -0.2718
    167  CB       -50.1410   -6.8370   -9.3280 C.3   178  ALA178      0.0304
    168  N        -47.8600   -8.0970   -7.5080 N.am  179  SER179     -0.1952
    169  CA       -46.8220   -9.1110   -7.6050 C.3   179  SER179      0.1924
    170  C        -46.1270   -9.4740   -6.2760 C.2   179  SER179      0.2314
    171  O        -45.2970  -10.3780   -6.2790 O.2   179  SER179     -0.2863
    172  CB       -45.7480   -8.6400   -8.6030 C.3   179  SER179      0.2116
    173  OG       -46.2800   -8.4980   -9.9240 O.3   179  SER179     -0.2180
    174  N        -46.6070  -24.4140  -25.1430 N.3   324  VAL324     -0.1231
    175  CA       -46.9070  -23.5520  -23.9770 C.3   324  VAL324      0.1692
    176  C        -45.7400  -23.3810  -22.9820 C.2   324  VAL324      0.2592
    177  O        -44.6530  -22.9700  -23.3780 O.2   324  VAL324     -0.2718
    178  CB       -48.2810  -23.9050  -23.2700 C.3   324  VAL324      0.0266
    179  CG1      -49.4940  -23.4520  -24.1450 C.3   324  VAL324      0.0020
    180  CG2      -48.3980  -25.4070  -22.9260 C.3   324  VAL324      0.0020
    181  N        -45.9750  -23.7000  -21.7100 N.am  325  ASP325     -0.1974
    182  CA       -44.9970  -23.4820  -20.6270 C.3   325  ASP325      0.1709
    183  C        -43.9780  -24.6090  -20.4520 C.2   325  ASP325      0.2293
    184  O        -43.0570  -24.5010  -19.6290 O.2   325  ASP325     -0.2864
    185  CB       -45.7280  -23.2660  -19.3080 C.3   325  ASP325      0.1436
    186  CG       -46.5810  -24.4680  -18.9030 C.2   325  ASP325      0.3671
    187  OD1      -47.5230  -24.8090  -19.6640 O.co2 325  ASP325     -0.2456
    188  OD2      -46.3220  -25.0510  -17.8200 O.co2 325  ASP325     -0.2456
@<TRIPOS>BOND
     1    33    34    1
     2    33    32    1
     3    34    28    1
     4    28    29    1
     5    30    29    1
     6    30    31    2
     7    51    50    1
     8    51    52    2
     9    32    29    1
    10    50    49    1
    11   174   175    1
    12    49    37   am
    13    35    36    1
    14   179   178    1
    15   175   178    1
    16   175   176    1
    17    37    36    1
    18    37    38    2
    19   177   176    2
    20    36    39    1
    21   178   180    1
    22   176   181   am
    23    59    58    2
    24    39    40    1
    25    41    40   ar
    26    41    43   ar
    27    53    54    1
    28    60    58   am
    29    58    57    1
    30   181   182    1
    31    40    42   ar
    32    43    44   ar
    33    54    57    1
    34    54    55    1
    35   182   183    1
    36   182   185    1
    37   183   184    2
    38    42    44   ar
    39    42    45   ar
    40    44    46   ar
    41   187   186   ar
    42    55    61   am
    43    55    56    2
    44    45    47   ar
    45   185   186    1
    46    61    62    1
    47    46    48   ar
    48   186   188   ar
    49    47    48   ar
    50    62    63    1
    51    62    65    1
    52    67    65    1
    53    63    64    2
    54    66    65    1
    55    76    78   ar
    56    76    74   ar
    57    68    69    1
    58    78    77   ar
    59    74    73   ar
    60    13    10    1
    61    10    11    1
    62    10     9    1
    63    77    75   ar
    64    73    75   ar
    65    73    72    1
    66    69    72    1
    67    69    70    1
    68    11    12    2
    69    14    15    1
    70    15    16    1
    71     8     6    1
    72    70    71    2
    73    27    25   ar
    74    27    26   ar
    75    25    23   ar
    76   138   136    1
    77   162   161    1
    78     6     5    1
    79    16    18   am
    80    16    17    2
    81    26    24   ar
    82     5     7    1
    83     5     2    1
    84    18    19    1
    85    23    24   ar
    86    23    22    1
    87     3     4    2
    88     3     2    1
    89    93    91    1
    90   105   104    1
    91   161   160   ar
    92   161   159   ar
    93   130   128   am
    94   160   158   ar
    95   136   137    1
    96   136   135    1
    97   127   128    1
    98   127   124    1
    99     2     1    1
   100    22    19    1
   101   128   129    2
   102   154   153    2
   103    91    92    1
   104    91    88    1
   105   103   104   ar
   106   103   101   ar
   107   159   157   ar
   108    19    20    1
   109   104   102   ar
   110   158   156   ar
   111   135   132    1
   112   124   125    1
   113   124   123    1
   114    90    89    2
   115   101    99   ar
   116   157   156   ar
   117    88    89    1
   118    88    87    1
   119   131   125   am
   120   131   132    1
   121    86    84    1
   122   153   152    1
   123    20    21    2
   124   156   155    1
   125   173   172    1
   126   102   100   ar
   127   125   126    2
   128   152   155    1
   129   152   151    1
   130   132   133    1
   131   134   133    2
   132    84    83    1
   133    87    81   am
   134   167   164    1
   135    99   100   ar
   136    99    98    1
   137   133   139   am
   138   172   169    1
   139    81    82    2
   140    81    80    1
   141    83    80    1
   142    83    85    1
   143    98    95    1
   144   142   141    2
   145   139   140    1
   146   164   165    1
   147   164   163    1
   148    94    95    1
   149    80    79    1
   150   141   140    1
   151   141   146   am
   152   165   166    2
   153   165   168   am
   154   122   121    1
   155   169   168    1
   156   169   170    1
   157   140   143    1
   158   147   146    1
   159   147   150    1
   160   147   148    1
   161    95    96    1
   162   119   120    2
   163   119   118    1
   164   116   114    1
   165   115   114    1
   166   118   121    1
   167   118   117    1
   168   114   113    2
   169   148   149    2
   170   171   170    2
   171    96    97    2
   172   143   144    1
   173   143   145    1
   174   113   112    1
   175   112   111    1
   176   111   110    1
   177   110   107    1
   178   106   107    1
   179   107   108    1
   180   108   109    2
