@<TRIPOS>MOLECULE
tmp/2iyiB01.pdb
 73 66 0 0 0
SMALL
GASTEIGER

@<TRIPOS>ATOM
      1  N         24.0830   32.3370   16.7620 N.3     3  VAL3       -0.1245
      2  CA        22.8060   33.0420   16.6140 C.3     3  VAL3        0.1561
      3  C         22.6390   33.7240   15.2640 C.2     3  VAL3        0.2260
      4  O         23.6240   33.8990   14.5420 O.2     3  VAL3       -0.2867
      5  CB        22.5950   34.0560   17.7790 C.3     3  VAL3        0.0252
      6  CG1       22.7160   35.5140   17.3040 C.3     3  VAL3        0.0019
      7  CG2       21.2550   33.8240   18.4540 C.3     3  VAL3        0.0019
      8  N         20.4100   37.0730   13.0650 N.3     5  CYS5       -0.1235
      9  CA        19.7060   38.3320   13.1640 C.3     5  CYS5        0.1677
     10  C         19.1570   38.7290   11.8240 C.2     5  CYS5        0.2270
     11  O         19.9050   38.7770   10.8500 O.2     5  CYS5       -0.2867
     12  CB        20.6540   39.4180   13.6330 C.3     5  CYS5        0.0956
     13  SG        19.8210   41.0150   13.9350 S.3     5  CYS5       -0.0801
     14  N         26.9470   35.4260   19.2430 N.3    55  PRO55      -0.2116
     15  CA        26.1410   36.5710   19.6970 C.3    55  PRO55       0.1372
     16  C         26.9770   37.8430   19.8280 C.2    55  PRO55       0.2244
     17  O         26.5160   38.9240   19.4640 O.2    55  PRO55      -0.2868
     18  CB        25.6410   36.1400   21.0810 C.3    55  PRO55       0.0268
     19  CG        25.8720   34.6790   21.1790 C.3    55  PRO55       0.0207
     20  CD        26.7080   34.2070   20.0370 C.3    55  PRO55       0.0892
     21  N         27.8090   39.3770   16.1200 N.3    58  VAL58      -0.1231
     22  CA        26.5740   39.8810   15.5420 C.3    58  VAL58       0.1692
     23  C         26.1960   41.2120   16.2160 C.2    58  VAL58       0.2591
     24  O         25.9820   42.2230   15.5240 O.2    58  VAL58      -0.2718
     25  CB        25.4200   38.8480   15.6930 C.3    58  VAL58       0.0266
     26  CG1       24.1090   39.4140   15.1800 C.3    58  VAL58       0.0020
     27  CG2       25.7470   37.5350   14.9930 C.3    58  VAL58       0.0020
     28  N         26.1410   41.2270   17.5550 N.am   59  ALA59      -0.1980
     29  CA        25.8410   42.4650   18.2850 C.3    59  ALA59       0.1597
     30  C         26.7950   43.5680   17.8430 C.2    59  ALA59       0.2287
     31  O         26.3500   44.6670   17.5450 O.2    59  ALA59      -0.2864
     32  CB        25.8830   42.2630   19.7900 C.3    59  ALA59       0.0319
     33  N         25.8030   44.7040   14.2480 N.3    62  MET62      -0.1230
     34  CA        24.4430   45.1830   14.2060 C.3    62  MET62       0.1702
     35  C         24.3230   46.5750   14.7660 C.2    62  MET62       0.2593
     36  O         23.4740   47.3390   14.3190 O.2    62  MET62      -0.2718
     37  CB        23.5030   44.2360   14.9310 C.3    62  MET62       0.0401
     38  CG        23.0610   43.0670   14.0680 C.3    62  MET62       0.0596
     39  SD        22.3160   43.5780   12.4990 S.3    62  MET62      -0.1393
     40  CE        20.8790   44.5260   13.0290 C.3    62  MET62       0.0692
     41  N         25.1710   46.9120   15.7340 N.am   63  THR63      -0.1953
     42  CA        25.2150   48.2840   16.2360 C.3    63  THR63       0.1897
     43  C         25.7620   49.2230   15.1550 C.2    63  THR63       0.2313
     44  O         25.2730   50.3420   14.9960 O.2    63  THR63      -0.2863
     45  CB        26.0670   48.4290   17.5130 C.3    63  THR63       0.1794
     46  OG1       27.4260   48.0890   17.2220 O.3    63  THR63      -0.2208
     47  CG2       25.5370   47.5510   18.6390 C.3    63  THR63       0.0378
     48  N         23.2030   49.5920   12.1090 N.3    66  GLN66      -0.1245
     49  CA        22.0720   50.4700   12.3860 C.3    66  GLN66       0.1566
     50  C         22.4180   51.9380   12.2530 C.2    66  GLN66       0.2260
     51  O         21.6110   52.7260   11.7530 O.2    66  GLN66      -0.2867
     52  CB        21.4810   50.1730   13.7530 C.3    66  GLN66       0.0367
     53  CG        20.8220   48.8160   13.7850 C.3    66  GLN66       0.0905
     54  CD        20.3160   48.4530   15.1510 C.2    66  GLN66       0.2608
     55  OE1       19.1070   48.3260   15.3520 O.2    66  GLN66      -0.2717
     56  NE2       21.2330   48.2800   16.1050 N.am   66  GLN66      -0.0878
     57  N         14.7720   43.8150   13.6770 N.3    77  LEU77      -0.1245
     58  CA        15.7650   42.7900   13.8570 C.3    77  LEU77       0.1561
     59  C         15.1010   41.6410   14.6260 C.2    77  LEU77       0.2260
     60  O         14.5740   41.8650   15.7260 O.2    77  LEU77      -0.2867
     61  CB        16.9400   43.3540   14.6720 C.3    77  LEU77       0.0270
     62  CG        17.3910   44.8280   14.6270 C.3    77  LEU77       0.0019
     63  CD1       17.4200   45.4030   13.2300 C.3    77  LEU77       0.0001
     64  CD2       16.5280   45.7200   15.5170 C.3    77  LEU77       0.0001
     65  N         15.9780   38.3660   16.3650 N.3    79  GLU79      -0.1245
     66  CA        17.1070   37.6320   16.9150 C.3    79  GLU79       0.1567
     67  C         16.7060   36.1960   17.3050 C.2    79  GLU79       0.2260
     68  O         16.0860   35.9780   18.3530 O.2    79  GLU79      -0.2867
     69  CB        17.6780   38.4130   18.1130 C.3    79  GLU79       0.0388
     70  CG        18.6300   37.6230   19.0670 C.3    79  GLU79       0.1160
     71  CD        20.1100   38.0590   19.0190 C.2    79  GLU79       0.3649
     72  OE1       20.7280   37.9830   17.9300 O.co2  79  GLU79      -0.2457
     73  OE2       20.6580   38.4510   20.0840 O.co2  79  GLU79      -0.2457
@<TRIPOS>BOND
     1    11    10    2
     2    51    50    2
     3    10     9    1
     4    48    49    1
     5    50    49    1
     6    49    52    1
     7    39    40    1
     8    39    38    1
     9     8     9    1
    10     9    12    1
    11    63    62    1
    12    12    13    1
    13    57    58    1
    14    52    53    1
    15    53    54    1
    16    58    59    1
    17    58    61    1
    18    38    37    1
    19    34    33    1
    20    34    35    1
    21    34    37    1
    22    36    35    2
    23     4     3    2
    24    59    60    2
    25    62    61    1
    26    62    64    1
    27    35    41   am
    28    27    25    1
    29    44    43    2
    30    54    55    2
    31    54    56   am
    32    43    42    1
    33    26    25    1
    34     3     2    1
    35    24    23    2
    36    22    25    1
    37    22    21    1
    38    22    23    1
    39    41    42    1
    40    23    28   am
    41    42    45    1
    42    65    66    1
    43     2     1    1
    44     2     5    1
    45    66    67    1
    46    66    69    1
    47    46    45    1
    48     6     5    1
    49    67    68    2
    50    45    47    1
    51    31    30    2
    52    28    29    1
    53     5     7    1
    54    30    29    1
    55    72    71   ar
    56    69    70    1
    57    29    32    1
    58    71    70    1
    59    71    73   ar
    60    14    15    1
    61    14    20    1
    62    17    16    2
    63    15    16    1
    64    15    18    1
    65    20    19    1
    66    18    19    1
