@<TRIPOS>MOLECULE
tmp/2iylA00.pdb
 127 119 0 0 0
SMALL
GASTEIGER

@<TRIPOS>ATOM
      1  N         18.0820   48.6840   21.3160 N.3    85  VAL85      -0.1231
      2  CA        17.5450   49.5270   22.3860 C.3    85  VAL85       0.1692
      3  C         18.5410   49.5180   23.5160 C.2    85  VAL85       0.2592
      4  O         19.2710   48.5530   23.6610 O.2    85  VAL85      -0.2718
      5  CB        16.1960   48.9510   22.9380 C.3    85  VAL85       0.0266
      6  CG1       15.1930   48.7480   21.8250 C.3    85  VAL85       0.0020
      7  CG2       16.4250   47.6340   23.6740 C.3    85  VAL85       0.0020
      8  N         18.5430   50.5680   24.3300 N.am   86  ASN86      -0.1960
      9  CA        19.3900   50.6470   25.5160 C.3    86  ASN86       0.1819
     10  C         19.2290   49.5350   26.5570 C.2    86  ASN86       0.2622
     11  O         18.1210   49.0420   26.7970 O.2    86  ASN86      -0.2715
     12  CB        19.1740   51.9800   26.2230 C.3    86  ASN86       0.1195
     13  CG        19.7600   53.1210   25.4610 C.2    86  ASN86       0.2630
     14  OD1       20.6070   52.9210   24.5830 O.2    86  ASN86      -0.2716
     15  ND2       19.3210   54.3360   25.7750 N.am   86  ASN86      -0.0877
     16  N         20.3560   49.1870   27.1890 N.am   87  GLY87      -0.1940
     17  CA        20.4150   48.1680   28.2230 C.3    87  GLY87       0.2014
     18  C         20.5360   46.7400   27.7470 C.2    87  GLY87       0.2639
     19  O         20.5310   45.8210   28.5770 O.2    87  GLY87      -0.2714
     20  N         20.6430   46.5170   26.4290 N.am   88  VAL88      -0.1963
     21  CA        20.7900   45.1340   25.9380 C.3    88  VAL88       0.1727
     22  C         22.2200   44.6340   25.9100 C.2    88  VAL88       0.2617
     23  O         22.4410   43.4380   25.7710 O.2    88  VAL88      -0.2715
     24  CB        20.1270   44.8630   24.5630 C.3    88  VAL88       0.0290
     25  CG1       18.6390   44.9540   24.6870 C.3    88  VAL88       0.0023
     26  CG2       20.6750   45.7860   23.4690 C.3    88  VAL88       0.0023
     27  N         23.2240   45.5060   26.0410 N.am   89  GLY89      -0.1940
     28  CA        24.6350   45.1200   25.9980 C.3    89  GLY89       0.2014
     29  C         25.3440   45.5280   24.7050 C.2    89  GLY89       0.2639
     30  O         26.2990   44.8710   24.2910 O.2    89  GLY89      -0.2714
     31  N         24.8600   46.6050   24.0910 N.am   90  LYS90      -0.1963
     32  CA        25.3490   47.2020   22.8510 C.3    90  LYS90       0.1728
     33  C         26.8060   47.6830   22.9820 C.2    90  LYS90       0.2617
     34  O         27.6720   47.1830   22.2840 O.2    90  LYS90      -0.2715
     35  CB        24.3950   48.3620   22.4810 C.3    90  LYS90       0.0311
     36  CG        24.2340   48.7490   20.9950 C.3    90  LYS90       0.0038
     37  CD        22.8190   49.3630   20.6260 C.3    90  LYS90       0.0206
     38  CE        22.5560   50.8660   20.8790 C.3    90  LYS90       0.1093
     39  NZ        22.3250   51.3280   22.3730 N.3    90  LYS90      -0.1314
     40  N         27.1000   48.6020   23.9070 N.am   91  THR91      -0.1937
     41  CA        28.4590   49.0980   24.1850 C.3    91  THR91       0.2028
     42  C         29.4270   47.9680   24.5490 C.2    91  THR91       0.2643
     43  O         30.5260   47.8760   23.9840 O.2    91  THR91      -0.2714
     44  CB        28.4620   50.1790   25.3190 C.3    91  THR91       0.1808
     45  OG1       27.4330   51.1410   25.0660 O.3    91  THR91      -0.2208
     46  CG2       29.7830   50.8970   25.3870 C.3    91  THR91       0.0379
     47  N         29.0050   47.1020   25.4800 N.am   92  THR92      -0.1936
     48  CA        29.8250   45.9830   25.9030 C.3    92  THR92       0.2028
     49  C         30.0750   44.9960   24.7850 C.2    92  THR92       0.2642
     50  O         31.1590   44.4190   24.7200 O.2    92  THR92      -0.2714
     51  CB        29.1690   45.1950   27.0940 C.3    92  THR92       0.1808
     52  OG1       28.6460   46.1420   28.0250 O.3    92  THR92      -0.2208
     53  CG2       30.2150   44.3850   27.8050 C.3    92  THR92       0.0379
     54  N         29.0690   44.7900   23.9410 N.am   93  THR93      -0.1950
     55  CA        29.1740   43.8620   22.8390 C.3    93  THR93       0.1897
     56  C         30.2190   44.3930   21.8350 C.2    93  THR93       0.2313
     57  O         31.0620   43.6490   21.3660 O.2    93  THR93      -0.2863
     58  CB        27.7990   43.6440   22.1740 C.3    93  THR93       0.1794
     59  OG1       26.9520   42.8940   23.0710 O.3    93  THR93      -0.2208
     60  CG2       27.9370   42.8280   20.8890 C.3    93  THR93       0.0378
     61  N         33.6050   43.7850   23.1690 N.3    96  LYS96      -0.1245
     62  CA        33.9640   42.3720   22.9990 C.3    96  LYS96       0.1561
     63  C         34.2310   42.0430   21.5270 C.2    96  LYS96       0.2260
     64  O         35.0720   41.1730   21.2050 O.2    96  LYS96      -0.2867
     65  CB        32.8230   41.4610   23.4810 C.3    96  LYS96       0.0271
     66  CG        32.4890   41.4540   24.9960 C.3    96  LYS96       0.0035
     67  CD        31.0740   40.7450   25.1250 C.3    96  LYS96       0.0206
     68  CE        30.7200   40.1910   26.5030 C.3    96  LYS96       0.1093
     69  NZ        29.4470   39.2770   26.3330 N.3    96  LYS96      -0.1314
     70  N         26.6320   56.8700   20.0010 N.3   114  ASP114     -0.1239
     71  CA        25.5960   57.0520   21.0110 C.3   114  ASP114      0.1674
     72  C         25.8790   58.3560   21.7400 C.2   114  ASP114      0.2266
     73  O         26.3600   58.3590   22.8770 O.2   114  ASP114     -0.2867
     74  CB        25.5830   55.8820   21.9960 C.3   114  ASP114      0.1410
     75  CG        24.3560   55.8910   22.9340 C.2   114  ASP114      0.3668
     76  OD1       23.5560   56.8550   22.9280 O.co2 114  ASP114     -0.2456
     77  OD2       24.2180   54.9220   23.7050 O.co2 114  ASP114     -0.2456
     78  N         31.2120   55.0630   28.3720 N.3   117  GLN117     -0.1245
     79  CA        31.7090   53.7040   28.4480 C.3   117  GLN117      0.1566
     80  C         32.6200   53.3520   27.2260 C.2   117  GLN117      0.2260
     81  O         33.7190   52.8800   27.4200 O.2   117  GLN117     -0.2867
     82  CB        30.4840   52.7760   28.6300 C.3   117  GLN117      0.0367
     83  CG        30.7520   51.3090   28.8880 C.3   117  GLN117      0.0905
     84  CD        31.1370   51.0040   30.3230 C.2   117  GLN117      0.2608
     85  OE1       31.8890   50.0570   30.5880 O.2   117  GLN117     -0.2717
     86  NE2       30.6200   51.8020   31.2630 N.am  117  GLN117     -0.0878
     87  N         22.6400   38.6100   23.5770 N.3   222  THR222     -0.1203
     88  CA        23.4920   38.6900   24.7430 C.3   222  THR222      0.1994
     89  C         22.8880   37.8390   25.8800 C.2   222  THR222      0.2617
     90  O         21.7470   37.3560   25.7760 O.2   222  THR222     -0.2717
     91  CB        23.6780   40.1540   25.1870 C.3   222  THR222      0.1784
     92  OG1       22.4050   40.7600   25.3990 O.3   222  THR222     -0.2211
     93  CG2       24.4250   40.9770   24.1010 C.3   222  THR222      0.0376
     94  N         23.6630   37.6450   26.9480 N.am  223  LYS223     -0.1979
     95  CA        23.1220   37.1530   28.2210 C.3   223  LYS223      0.1596
     96  C         22.5390   35.7620   28.0750 C.2   223  LYS223      0.2287
     97  O         21.4550   35.4720   28.5660 O.2   223  LYS223     -0.2864
     98  CB        22.0980   38.1470   28.7830 C.3   223  LYS223      0.0298
     99  CG        22.6960   39.5140   29.1190 C.3   223  LYS223      0.0038
    100  CD        21.6450   40.6180   29.0090 C.3   223  LYS223      0.0206
    101  CE        22.1540   41.9520   29.5670 C.3   223  LYS223      0.1093
    102  NZ        21.1560   43.0610   29.3750 N.3   223  LYS223     -0.1314
    103  N         24.2090   33.3740   29.2820 N.3   225  ASP225     -0.1239
    104  CA        24.5800   32.8320   30.5880 C.3   225  ASP225      0.1674
    105  C         23.4350   32.9170   31.6000 C.2   225  ASP225      0.2266
    106  O         23.5240   32.3170   32.6770 O.2   225  ASP225     -0.2867
    107  CB        25.8430   33.5110   31.1530 C.3   225  ASP225      0.1410
    108  CG        25.8430   35.0290   30.9860 C.2   225  ASP225      0.3668
    109  OD1       25.9720   35.7440   32.0100 O.co2 225  ASP225     -0.2456
    110  OD2       25.7470   35.5100   29.8280 O.co2 225  ASP225     -0.2456
    111  N         26.5110   36.3630   23.4640 N.3   248  GLY248     -0.1225
    112  CA        27.1310   36.9110   24.6670 C.3   248  GLY248      0.1811
    113  C         26.9390   35.9680   25.8470 C.2   248  GLY248      0.2280
    114  O         25.8160   35.5910   26.1820 O.2   248  GLY248     -0.2866
    115  N         28.8450   36.3640   29.0480 N.3   250  GLY250     -0.1210
    116  CA        29.2830   36.9110   30.3260 C.3   250  GLY250      0.1956
    117  C         29.5950   38.3810   30.2070 C.2   250  GLY250      0.2611
    118  O         29.5380   38.9300   29.1120 O.2   250  GLY250     -0.2717
    119  N         29.9500   39.0300   31.3170 N.am  251  GLU251     -0.1979
    120  CA        30.2360   40.4770   31.2840 C.3   251  GLU251      0.1602
    121  C         31.6560   40.8710   30.8390 C.2   251  GLU251      0.2287
    122  O         31.8790   42.0250   30.4490 O.2   251  GLU251     -0.2864
    123  CB        29.9110   41.1330   32.6350 C.3   251  GLU251      0.0415
    124  CG        28.4470   41.0480   33.0330 C.3   251  GLU251      0.1163
    125  CD        28.2350   41.0310   34.5410 C.2   251  GLU251      0.3649
    126  OE1       29.1400   40.5790   35.2790 O.co2 251  GLU251     -0.2457
    127  OE2       27.1450   41.4590   34.9830 O.co2 251  GLU251     -0.2457
@<TRIPOS>BOND
     1    70    71    1
     2    37    38    1
     3    37    36    1
     4    38    39    1
     5    60    58    1
     6    36    35    1
     7    71    72    1
     8    71    74    1
     9    64    63    2
    10     1     2    1
    11    57    56    2
    12    63    62    1
    13    72    73    2
    14     6     5    1
    15    56    55    1
    16    74    75    1
    17    58    55    1
    18    58    59    1
    19    34    33    2
    20     2     5    1
    21     2     3    1
    22    35    32    1
    23    55    54    1
    24    32    33    1
    25    32    31    1
    26    76    75   ar
    27    75    77   ar
    28     5     7    1
    29    33    40   am
    30    62    61    1
    31    62    65    1
    32   111   112    1
    33    26    24    1
    34    65    66    1
    35     3     4    2
    36     3     8   am
    37    87    88    1
    38    40    41    1
    39    54    49   am
    40    43    42    2
    41    31    29   am
    42    93    91    1
    43    41    42    1
    44    41    44    1
    45    30    29    2
    46     8     9    1
    47    42    47   am
    48    24    25    1
    49    24    21    1
    50    14    13    2
    51   112   113    1
    52    29    28    1
    53    50    49    2
    54    88    91    1
    55    88    89    1
    56    49    48    1
    57    66    67    1
    58    45    44    1
    59    67    68    1
    60    91    92    1
    61    44    46    1
    62    13    15   am
    63    13    12    1
    64    47    48    1
    65     9    12    1
    66     9    10    1
    67    23    22    2
    68    90    89    2
    69   113   114    2
    70    89    94   am
    71    48    51    1
    72    22    21    1
    73    22    27   am
    74    21    20    1
    75    28    27    1
    76    69    68    1
    77    20    18   am
    78    10    11    2
    79    10    16   am
    80    94    95    1
    81    51    53    1
    82    51    52    1
    83    16    17    1
    84    80    81    2
    85    80    79    1
    86    18    17    1
    87    18    19    2
    88    96    95    1
    89    96    97    2
    90    95    98    1
    91    78    79    1
    92    79    82    1
    93    82    83    1
    94    98    99    1
    95    83    84    1
    96   100    99    1
    97   100   101    1
    98   115   116    1
    99   118   117    2
   100   103   104    1
   101   102   101    1
   102   110   108   ar
   103   117   116    1
   104   117   119   am
   105    84    85    2
   106    84    86   am
   107   122   121    2
   108   104   107    1
   109   104   105    1
   110   121   120    1
   111   108   107    1
   112   108   109   ar
   113   120   119    1
   114   120   123    1
   115   105   106    2
   116   123   124    1
   117   124   125    1
   118   125   127   ar
   119   125   126   ar
