@<TRIPOS>MOLECULE
tmp/2iyoA00.pdb
 144 136 0 0 0
SMALL
GASTEIGER

@<TRIPOS>ATOM
      1  N         40.2590   28.2570   16.4480 N.3    14  MET14      -0.1245
      2  CA        39.5440   26.9900   16.2460 C.3    14  MET14       0.1570
      3  C         38.2840   27.1910   15.3930 C.2    14  MET14       0.2261
      4  O         38.0760   26.4860   14.4000 O.2    14  MET14      -0.2867
      5  CB        39.1810   26.3230   17.5810 C.3    14  MET14       0.0387
      6  CG        40.3110   25.5610   18.2590 C.3    14  MET14       0.0595
      7  SD        41.0390   24.2560   17.2470 S.3    14  MET14      -0.1393
      8  CE        39.8890   22.8950   17.4670 C.3    14  MET14       0.0692
      9  N         35.1460   22.2400   23.8880 N.3   102  ASN102     -0.1240
     10  CA        35.5360   21.2530   24.8740 C.3   102  ASN102      0.1653
     11  C         34.6840   21.3090   26.1390 C.2   102  ASN102      0.2266
     12  O         35.1690   21.5950   27.2160 O.2   102  ASN102     -0.2867
     13  CB        37.0080   21.4240   25.2200 C.3   102  ASN102      0.1155
     14  CG        37.9260   21.0250   24.0950 C.2   102  ASN102      0.2627
     15  OD1       39.0750   21.4370   24.0490 O.2   102  ASN102     -0.2716
     16  ND2       37.4300   20.2210   23.1910 N.am  102  ASN102     -0.0877
     17  N         35.8000   17.9660   18.8430 N.3   127  VAL127     -0.1231
     18  CA        36.5960   18.2700   17.6700 C.3   127  VAL127      0.1692
     19  C         38.0480   18.1090   18.0850 C.2   127  VAL127      0.2593
     20  O         38.5300   18.7990   18.9770 O.2   127  VAL127     -0.2718
     21  CB        36.3340   19.7130   17.1530 C.3   127  VAL127      0.0266
     22  CG1       37.1570   20.0040   15.8850 C.3   127  VAL127      0.0020
     23  CG2       34.8370   19.9410   16.9000 C.3   127  VAL127      0.0020
     24  N         38.7470   17.1830   17.4500 N.am  128  SER128     -0.1938
     25  CA        40.1220   16.9230   17.8340 C.3   128  SER128      0.2055
     26  C         41.0850   17.1820   16.6840 C.2   128  SER128      0.2644
     27  O         40.7270   17.0180   15.5230 O.2   128  SER128     -0.2714
     28  CB        40.2580   15.4900   18.3450 C.3   128  SER128      0.2130
     29  OG        41.5590   15.2830   18.8570 O.3   128  SER128     -0.2179
     30  N         42.3000   17.6000   17.0100 N.am  129  GLY129     -0.1939
     31  CA        43.3470   17.7310   16.0060 C.3   129  GLY129      0.2014
     32  C         44.0930   19.0430   16.0480 C.2   129  GLY129      0.2639
     33  O         44.9390   19.3010   15.1980 O.2   129  GLY129     -0.2714
     34  N         43.7750   19.8730   17.0360 N.am  130  GLY130     -0.1954
     35  CA        44.3870   21.1800   17.1750 C.3   130  GLY130      0.1869
     36  C         43.9070   22.1510   16.1210 C.2   130  GLY130      0.2309
     37  O         42.9580   21.8700   15.3870 O.2   130  GLY130     -0.2863
     38  N         34.9920   12.5540   23.4440 N.3   184  LYS184     -0.1245
     39  CA        36.0080   13.5990   23.3380 C.3   184  LYS184      0.1561
     40  C         36.7940   13.8230   24.6430 C.2   184  LYS184      0.2260
     41  O         38.0270   13.9590   24.6170 O.2   184  LYS184     -0.2867
     42  CB        35.3800   14.9030   22.8320 C.3   184  LYS184      0.0271
     43  CG        36.2670   16.1430   22.9440 C.3   184  LYS184      0.0035
     44  CD        37.5210   16.1150   22.0500 C.3   184  LYS184      0.0206
     45  CE        38.3860   17.3270   22.4290 C.3   184  LYS184      0.1093
     46  NZ        39.4340   17.7120   21.4690 N.3   184  LYS184     -0.1314
     47  N         39.1420   10.8940   24.8630 N.3   187  HIS187     -0.1226
     48  CA        40.2220   11.2540   23.9680 C.3   187  HIS187      0.1752
     49  C         41.2980   12.1390   24.5840 C.2   187  HIS187      0.2596
     50  O         42.4700   11.8530   24.4650 O.2   187  HIS187     -0.2718
     51  CB        39.7220   11.8740   22.6670 C.3   187  HIS187      0.0759
     52  CG        40.8230   12.4010   21.8130 C.ar  187  HIS187      0.0818
     53  ND1       41.3490   13.6590   21.9720 N.ar  187  HIS187     -0.2268
     54  CD2       41.5440   11.8160   20.8340 C.ar  187  HIS187      0.1154
     55  CE1       42.3300   13.8350   21.1140 C.ar  187  HIS187      0.1986
     56  NE2       42.4660   12.7350   20.4080 N.ar  187  HIS187     -0.2212
     57  N         40.8850   13.2220   25.2200 N.am  188  ASN188     -0.1974
     58  CA        41.8210   14.1610   25.8430 C.3   188  ASN188      0.1688
     59  C         42.4880   13.6150   27.0750 C.2   188  ASN188      0.2292
     60  O         43.6570   13.9070   27.3200 O.2   188  ASN188     -0.2864
     61  CB        41.1530   15.4920   26.1430 C.3   188  ASN188      0.1181
     62  CG        41.0470   16.3710   24.9200 C.2   188  ASN188      0.2629
     63  OD1       41.1310   15.8910   23.7860 O.2   188  ASN188     -0.2716
     64  ND2       40.8550   17.6630   25.1390 N.am  188  ASN188     -0.0877
     65  N         45.1240   11.5050   25.7430 N.3   191  GLU191     -0.1231
     66  CA        46.1110   12.4490   25.2670 C.3   191  GLU191      0.1699
     67  C         47.0880   12.8640   26.3800 C.2   191  GLU191      0.2592
     68  O         48.3070   12.7270   26.2150 O.2   191  GLU191     -0.2718
     69  CB        45.3780   13.6520   24.6910 C.3   191  GLU191      0.0402
     70  CG        46.2480   14.7220   24.1160 C.3   191  GLU191      0.1161
     71  CD        45.4840   15.9970   23.9110 C.2   191  GLU191      0.3649
     72  OE1       44.7620   16.0790   22.9000 O.co2 191  GLU191     -0.2457
     73  OE2       45.6150   16.9120   24.7590 O.co2 191  GLU191     -0.2457
     74  N         46.5580   13.3510   27.5040 N.am  192  TYR192     -0.1976
     75  CA        47.3670   13.6770   28.6870 C.3   192  TYR192      0.1639
     76  C         48.3120   12.5360   29.0410 C.2   192  TYR192      0.2290
     77  O         49.5000   12.7610   29.2440 O.2   192  TYR192     -0.2864
     78  CB        46.4820   13.9500   29.9230 C.3   192  TYR192      0.0560
     79  CG        45.7920   15.3050   30.0100 C.ar  192  TYR192     -0.0198
     80  CD1       45.2150   15.9020   28.8880 C.ar  192  TYR192     -0.0009
     81  CD2       45.6850   15.9630   31.2330 C.ar  192  TYR192     -0.0009
     82  CE1       44.5530   17.1410   28.9820 C.ar  192  TYR192      0.0417
     83  CE2       45.0330   17.2010   31.3440 C.ar  192  TYR192      0.0417
     84  CZ        44.4630   17.7800   30.2140 C.ar  192  TYR192      0.1957
     85  OH        43.8140   18.9880   30.3170 O.3   192  TYR192     -0.2866
     86  N         51.1800   12.1260   26.4290 N.3   195  MET195     -0.1245
     87  CA        52.1250   13.2280   26.6440 C.3   195  MET195      0.1570
     88  C         52.9780   13.0320   27.8950 C.2   195  MET195      0.2261
     89  O         54.1840   13.3350   27.8810 O.2   195  MET195     -0.2867
     90  CB        51.4020   14.5760   26.6960 C.3   195  MET195      0.0387
     91  CG        50.7720   14.9720   25.3820 C.3   195  MET195      0.0595
     92  SD        49.4160   16.1330   25.5870 S.3   195  MET195     -0.1393
     93  CE        50.3320   17.6720   25.5900 C.3   195  MET195      0.0692
     94  N         49.9760   23.5680   31.7930 N.3   260  GLY260     -0.1210
     95  CA        48.6030   24.0610   31.8920 C.3   260  GLY260      0.1956
     96  C         47.6060   22.9550   31.5860 C.2   260  GLY260      0.2612
     97  O         47.9790   21.8390   31.1780 O.2   260  GLY260     -0.2717
     98  N         46.3340   23.2640   31.8070 N.am  261  ASN261     -0.1960
     99  CA        45.2310   22.3750   31.4660 C.3   261  ASN261      0.1819
    100  C         43.9430   23.1790   31.3540 C.2   261  ASN261      0.2621
    101  O         43.8020   24.2340   31.9740 O.2   261  ASN261     -0.2715
    102  CB        45.0940   21.2290   32.4890 C.3   261  ASN261      0.1195
    103  CG        44.3470   21.6450   33.7620 C.2   261  ASN261      0.2630
    104  OD1       43.1140   21.6460   33.8010 O.2   261  ASN261     -0.2716
    105  ND2       45.0990   21.9720   34.8100 N.am  261  ASN261     -0.0877
    106  N         43.0050   22.6830   30.5580 N.am  262  LYS262     -0.1963
    107  CA        41.7330   23.3650   30.3990 C.3   262  LYS262      0.1728
    108  C         40.5400   22.4900   30.8040 C.2   262  LYS262      0.2617
    109  O         39.4130   22.7390   30.3800 O.2   262  LYS262     -0.2715
    110  CB        41.6090   23.9590   28.9820 C.3   262  LYS262      0.0311
    111  CG        42.6840   25.0310   28.6870 C.3   262  LYS262      0.0038
    112  CD        42.6330   25.5850   27.2580 C.3   262  LYS262      0.0206
    113  CE        41.6270   26.7290   27.1420 C.3   262  LYS262      0.1093
    114  NZ        41.3330   27.0890   25.7230 N.3   262  LYS262     -0.1314
    115  N         40.8000   21.4680   31.6240 N.am  263  GLY263     -0.1940
    116  CA        39.7370   20.7110   32.2730 C.3   263  GLY263      0.2014
    117  C         39.4490   19.2800   31.8380 C.2   263  GLY263      0.2639
    118  O         39.1250   18.4330   32.6780 O.2   263  GLY263     -0.2714
    119  N         39.5500   18.9900   30.5420 N.am  264  THR264     -0.1950
    120  CA        39.1640   17.6580   30.0230 C.3   264  THR264      0.1897
    121  C         39.8260   16.4310   30.6900 C.2   264  THR264      0.2313
    122  O         39.1510   15.4300   30.9430 O.2   264  THR264     -0.2863
    123  CB        39.3190   17.5630   28.4910 C.3   264  THR264      0.1794
    124  OG1       40.6330   17.9830   28.1160 O.3   264  THR264     -0.2208
    125  CG2       38.3000   18.4360   27.7890 C.3   264  THR264      0.0378
    126  N         50.8240   17.0620   35.9720 N.3   289  ARG289     -0.1245
    127  CA        50.6700   18.4600   35.5640 C.3   289  ARG289      0.1563
    128  C         50.5310   19.3520   36.7950 C.2   289  ARG289      0.2260
    129  O         51.1640   20.3990   36.8770 O.2   289  ARG289     -0.2867
    130  CB        49.4720   18.6490   34.6240 C.3   289  ARG289      0.0307
    131  CG        49.5910   17.9320   33.2820 C.3   289  ARG289      0.0489
    132  CD        48.7280   18.5930   32.2230 C.3   289  ARG289      0.2205
    133  NE        48.7900   17.8740   30.9470 N.pl3 289  ARG289     -0.0865
    134  CZ        48.2630   18.3050   29.7980 C.cat 289  ARG289      0.5346
    135  NH1       47.6080   19.4670   29.7440 N.pl3 289  ARG289      0.1354
    136  NH2       48.3750   17.5590   28.7020 N.pl3 289  ARG289      0.1354
    137  N         44.3980   14.1310   18.0070 N.3   367  ILE367     -0.1245
    138  CA        45.7610   14.2850   18.5460 C.3   367  ILE367      0.1561
    139  C         46.4130   12.9420   18.8600 C.2   367  ILE367      0.2260
    140  O         47.6240   12.7810   18.7010 O.2   367  ILE367     -0.2867
    141  CB        45.7970   15.2210   19.8090 C.3   367  ILE367      0.0252
    142  CG1       45.3150   16.6360   19.4630 C.3   367  ILE367      0.0019
    143  CG2       47.1970   15.2380   20.4630 C.3   367  ILE367      0.0019
    144  CD1       46.2320   17.4320   18.5220 C.3   367  ILE367      0.0001
@<TRIPOS>BOND
     1     4     3    2
     2    33    32    2
     3    37    36    2
     4     3     2    1
     5    27    26    2
     6    22    21    1
     7    31    32    1
     8    31    30    1
     9    32    34   am
    10    36    35    1
    11     2     1    1
    12     2     5    1
    13    26    30   am
    14    26    25    1
    15    23    21    1
    16    34    35    1
    17    21    18    1
    18     7     8    1
    19     7     6    1
    20    24    25    1
    21    24    19   am
    22     5     6    1
    23    18    19    1
    24    18    17    1
    25    25    28    1
    26   137   138    1
    27    19    20    2
    28    28    29    1
    29   144   142    1
    30   138   139    1
    31   138   141    1
    32   140   139    2
    33   142   141    1
    34   141   143    1
    35    56    54   ar
    36    56    55   ar
    37    54    52   ar
    38    55    53   ar
    39    46    45    1
    40    52    53   ar
    41    52    51    1
    42    44    45    1
    43    44    43    1
    44    51    48    1
    45    42    43    1
    46    42    39    1
    47    72    71   ar
    48    16    14   am
    49    39    38    1
    50    39    40    1
    51    63    62    2
    52     9    10    1
    53    71    70    1
    54    71    73   ar
    55    48    49    1
    56    48    47    1
    57    15    14    2
    58    14    13    1
    59    70    69    1
    60    50    49    2
    61    49    57   am
    62    41    40    2
    63    69    66    1
    64    10    13    1
    65    10    11    1
    66    62    64   am
    67    62    61    1
    68    57    58    1
    69    66    65    1
    70    66    67    1
    71    91    92    1
    72    91    90    1
    73    92    93    1
    74   114   113    1
    75    58    61    1
    76    58    59    1
    77    11    12    2
    78    68    67    2
    79    67    74   am
    80    86    87    1
    81    87    90    1
    82    87    88    1
    83    59    60    2
    84   113   112    1
    85   112   111    1
    86    74    75    1
    87   125   123    1
    88    89    88    2
    89   124   123    1
    90   123   120    1
    91    75    76    1
    92    75    78    1
    93   111   110    1
    94   136   134    1
    95    80    82   ar
    96    80    79   ar
    97    82    84   ar
    98   110   107    1
    99    76    77    2
   100   135   134    1
   101   134   133    2
   102    78    79    1
   103    79    81   ar
   104   120   119    1
   105   120   121    1
   106    84    85    1
   107    84    83   ar
   108   109   108    2
   109   107   106    1
   110   107   108    1
   111   119   117   am
   112   106   100   am
   113   121   122    2
   114   108   115   am
   115   133   132    1
   116    97    96    2
   117    81    83   ar
   118   100    99    1
   119   100   101    2
   120    99    98    1
   121    99   102    1
   122    96    98   am
   123    96    95    1
   124   115   116    1
   125    94    95    1
   126   117   116    1
   127   117   118    2
   128   132   131    1
   129   102   103    1
   130   131   130    1
   131   103   104    2
   132   103   105   am
   133   130   127    1
   134   127   126    1
   135   127   128    1
   136   128   129    2
