@<TRIPOS>MOLECULE
tmp/2iypA01.pdb
 140 131 0 0 0
SMALL
GASTEIGER

@<TRIPOS>ATOM
      1  N         -4.0660   -8.0570   59.4390 N.3    14  MET14      -0.1245
      2  CA        -3.4770   -6.9170   58.7090 C.3    14  MET14       0.1570
      3  C         -2.5220   -7.3470   57.5830 C.2    14  MET14       0.2261
      4  O         -2.6940   -6.9240   56.4390 O.2    14  MET14      -0.2867
      5  CB        -2.7710   -5.9290   59.6500 C.3    14  MET14       0.0387
      6  CG        -3.6690   -5.1410   60.5920 C.3    14  MET14       0.0595
      7  SD        -5.0100   -4.1230   59.8890 S.3    14  MET14      -0.1393
      8  CE        -4.1200   -2.7650   59.1280 C.3    14  MET14       0.0692
      9  N          1.9400   -0.9220   64.7000 N.3   102  ASN102     -0.1240
     10  CA         1.7810    0.1910   65.6400 C.3   102  ASN102      0.1653
     11  C          2.9950    0.3700   66.5760 C.2   102  ASN102      0.2266
     12  O          2.8630    0.3950   67.8030 O.2   102  ASN102     -0.2867
     13  CB         0.4780    0.0440   66.4380 C.3   102  ASN102      0.1155
     14  CG        -0.7380    0.4900   65.6640 C.2   102  ASN102      0.2627
     15  OD1       -0.6410    1.2590   64.7100 O.2   102  ASN102     -0.2716
     16  ND2       -1.9020    0.0220   66.0890 N.am  102  ASN102     -0.0877
     17  N         -0.4190    2.4440   59.5380 N.3   127  VAL127     -0.1231
     18  CA        -1.4380    1.9650   58.6300 C.3   127  VAL127      0.1692
     19  C         -2.7490    1.9850   59.3920 C.2   127  VAL127      0.2593
     20  O         -2.8740    1.3350   60.4220 O.2   127  VAL127     -0.2718
     21  CB        -1.1080    0.5530   58.1110 C.3   127  VAL127      0.0266
     22  CG1       -2.2820   -0.0250   57.3640 C.3   127  VAL127      0.0020
     23  CG2        0.1230    0.5840   57.2240 C.3   127  VAL127      0.0020
     24  N         -3.7010    2.7760   58.9050 N.am  128  SER128     -0.1938
     25  CA        -5.0390    2.8500   59.4870 C.3   128  SER128      0.2055
     26  C         -6.0020    2.1740   58.5280 C.2   128  SER128      0.2644
     27  O         -5.6320    1.8850   57.3840 O.2   128  SER128     -0.2714
     28  CB        -5.4560    4.3150   59.6820 C.3   128  SER128      0.2130
     29  OG        -6.7920    4.4310   60.1710 O.3   128  SER128     -0.2179
     30  N         -7.2320    1.9440   58.9870 N.am  129  GLY129     -0.1939
     31  CA        -8.2970    1.3980   58.1520 C.3   129  GLY129      0.2014
     32  C         -8.7410   -0.0090   58.5160 C.2   129  GLY129      0.2639
     33  O         -9.6640   -0.5470   57.9050 O.2   129  GLY129     -0.2714
     34  N         -8.0880   -0.6140   59.5000 N.am  130  GLY130     -0.1954
     35  CA        -8.4460   -1.9650   59.9290 C.3   130  GLY130      0.1869
     36  C         -8.2690   -2.9950   58.8220 C.2   130  GLY130      0.2309
     37  O         -7.4140   -2.8370   57.9390 O.2   130  GLY130     -0.2863
     38  N          0.6530    8.1720   63.4120 N.3   184  LYS184     -0.1245
     39  CA        -0.3580    7.1310   63.6480 C.3   184  LYS184      0.1561
     40  C         -0.7990    6.9870   65.1310 C.2   184  LYS184      0.2260
     41  O         -1.9800    6.7500   65.4090 O.2   184  LYS184     -0.2867
     42  CB         0.1040    5.7900   63.0550 C.3   184  LYS184      0.0271
     43  CG        -0.7430    4.5660   63.4040 C.3   184  LYS184      0.0035
     44  CD        -2.0930    4.6010   62.7190 C.3   184  LYS184      0.0206
     45  CE        -2.9820    3.4730   63.1770 C.3   184  LYS184      0.1093
     46  NZ        -2.3320    2.1470   63.0600 N.3   184  LYS184     -0.1314
     47  N         -3.2330    9.5610   65.5430 N.3   187  HIS187     -0.1226
     48  CA        -4.4420    9.0150   64.9270 C.3   187  HIS187      0.1752
     49  C         -5.2440    8.1760   65.9510 C.2   187  HIS187      0.2596
     50  O         -6.4170    8.4690   66.2380 O.2   187  HIS187     -0.2718
     51  CB        -4.0870    8.1720   63.7000 C.3   187  HIS187      0.0759
     52  CG        -5.2620    7.5010   63.0610 C.ar  187  HIS187      0.0818
     53  ND1       -5.9540    6.4730   63.6670 N.ar  187  HIS187     -0.2268
     54  CD2       -5.8590    7.7020   61.8630 C.ar  187  HIS187      0.1154
     55  CE1       -6.9340    6.0770   62.8730 C.ar  187  HIS187      0.1986
     56  NE2       -6.8920    6.7990   61.7660 N.ar  187  HIS187     -0.2212
     57  N         -4.6020    7.1500   66.5090 N.am  188  ASN188     -0.1974
     58  CA        -5.2220    6.3220   67.5480 C.3   188  ASN188      0.1688
     59  C         -5.6560    7.0720   68.8160 C.2   188  ASN188      0.2292
     60  O         -6.7050    6.7670   69.4000 O.2   188  ASN188     -0.2864
     61  CB        -4.3330    5.1200   67.8720 C.3   188  ASN188      0.1181
     62  CG        -4.2160    4.1750   66.6940 C.2   188  ASN188      0.2629
     63  OD1       -4.4850    4.5770   65.5650 O.2   188  ASN188     -0.2716
     64  ND2       -3.8290    2.9230   66.9390 N.am  188  ASN188     -0.0877
     65  N         -8.7600    8.6900   67.8980 N.3   191  GLU191     -0.1231
     66  CA        -9.6990    7.5960   67.7880 C.3   191  GLU191      0.1699
     67  C        -10.3610    7.2730   69.1360 C.2   191  GLU191      0.2592
     68  O        -11.5720    7.1010   69.1850 O.2   191  GLU191     -0.2718
     69  CB        -8.9850    6.3830   67.1950 C.3   191  GLU191      0.0402
     70  CG        -9.7780    5.1140   67.0570 C.3   191  GLU191      0.1161
     71  CD        -8.9290    4.0400   66.3940 C.2   191  GLU191      0.3649
     72  OE1       -8.5280    4.2310   65.2180 O.co2 191  GLU191     -0.2457
     73  OE2       -8.6210    3.0160   67.0450 O.co2 191  GLU191     -0.2457
     74  N         -9.5790    7.2140   70.2170 N.am  192  TYR192     -0.1976
     75  CA       -10.1180    6.8540   71.5250 C.3   192  TYR192      0.1639
     76  C        -11.0630    7.9330   71.9790 C.2   192  TYR192      0.2290
     77  O        -12.0820    7.6410   72.6140 O.2   192  TYR192     -0.2864
     78  CB        -9.0350    6.7150   72.5900 C.3   192  TYR192      0.0560
     79  CG        -8.1590    5.4640   72.5950 C.ar  192  TYR192     -0.0198
     80  CD1       -7.7650    4.8320   71.4260 C.ar  192  TYR192     -0.0009
     81  CD2       -7.6570    4.9770   73.7930 C.ar  192  TYR192     -0.0009
     82  CE1       -6.9350    3.7300   71.4630 C.ar  192  TYR192      0.0417
     83  CE2       -6.8360    3.8770   73.8430 C.ar  192  TYR192      0.0417
     84  CZ        -6.4760    3.2640   72.6820 C.ar  192  TYR192      0.1957
     85  OH        -5.6500    2.1760   72.7530 O.3   192  TYR192     -0.2866
     86  N        -14.3520    7.6520   70.0810 N.3   195  MET195     -0.1245
     87  CA       -15.0620    6.4690   70.5810 C.3   195  MET195      0.1570
     88  C        -15.6800    6.6730   71.9730 C.2   195  MET195      0.2261
     89  O        -16.8550    6.3400   72.1970 O.2   195  MET195     -0.2867
     90  CB       -14.1650    5.2490   70.5370 C.3   195  MET195      0.0387
     91  CG       -13.9120    4.7940   69.1130 C.3   195  MET195      0.0595
     92  SD       -12.5100    3.6960   68.9540 S.3   195  MET195     -0.1393
     93  CE       -13.2150    2.1260   69.4310 C.3   195  MET195      0.0692
     94  N        -10.5600   -3.4610   75.9930 N.3   260  GLY260     -0.1210
     95  CA        -9.1760   -3.8380   75.7100 C.3   260  GLY260      0.1956
     96  C         -8.4700   -2.6180   75.1490 C.2   260  GLY260      0.2612
     97  O         -9.0870   -1.6590   74.7000 O.2   260  GLY260     -0.2717
     98  N         -7.1600   -2.6280   75.1910 N.am  261  ASN261     -0.1960
     99  CA        -6.4060   -1.5030   74.6810 C.3   261  ASN261      0.1819
    100  C         -5.0200   -2.0210   74.3690 C.2   261  ASN261      0.2621
    101  O         -4.4950   -2.8860   75.0830 O.2   261  ASN261     -0.2715
    102  CB        -6.3600   -0.3670   75.7090 C.3   261  ASN261      0.1195
    103  CG        -5.1330   -0.4250   76.5850 C.2   261  ASN261      0.2630
    104  OD1       -4.0390   -0.0600   76.1600 O.2   261  ASN261     -0.2716
    105  ND2       -5.3020   -0.8970   77.8070 N.am  261  ASN261     -0.0877
    106  N         -4.4260   -1.5110   73.3010 N.am  262  LYS262     -0.1977
    107  CA        -3.1690   -2.0750   72.8450 C.3   262  LYS262      0.1596
    108  C         -2.0320   -1.0730   72.7640 C.2   262  LYS262      0.2287
    109  O         -1.1410   -1.2120   71.9280 O.2   262  LYS262     -0.2864
    110  CB        -3.3640   -2.8420   71.5360 C.3   262  LYS262      0.0298
    111  CG        -3.7040   -4.2990   71.7740 C.3   262  LYS262      0.0038
    112  CD        -4.3530   -4.9480   70.5680 C.3   262  LYS262      0.0206
    113  CE        -4.4620   -6.4550   70.7880 C.3   262  LYS262      0.1093
    114  NZ        -5.6220   -7.0930   70.0970 N.3   262  LYS262     -0.1314
    115  N         -1.3830    2.3040   71.9600 N.3   264  THR264     -0.1218
    116  CA        -1.2650    3.5730   71.2080 C.3   264  THR264      0.1862
    117  C         -1.9180    4.7820   71.8720 C.2   264  THR264      0.2287
    118  O         -1.3090    5.8540   71.9420 O.2   264  THR264     -0.2866
    119  CB        -1.7720    3.4670   69.7560 C.3   264  THR264      0.1770
    120  OG1       -3.0240    2.7730   69.7280 O.3   264  THR264     -0.2211
    121  CG2       -0.7550    2.7370   68.8790 C.3   264  THR264      0.0375
    122  N        -11.3020    3.7920   79.4640 N.3   289  ARG289     -0.1245
    123  CA       -10.9860    2.3980   79.2030 C.3   289  ARG289      0.1563
    124  C        -10.5520    1.6830   80.4840 C.2   289  ARG289      0.2260
    125  O        -11.1460    0.6570   80.8540 O.2   289  ARG289     -0.2867
    126  CB        -9.9650    2.2510   78.0730 C.3   289  ARG289      0.0307
    127  CG       -10.5890    2.5950   76.6990 C.3   289  ARG289      0.0489
    128  CD        -9.8600    1.9630   75.5160 C.3   289  ARG289      0.2205
    129  NE       -10.3110    2.5810   74.2730 N.pl3 289  ARG289     -0.0865
    130  CZ       -10.0090    2.1410   73.0610 C.cat 289  ARG289      0.5346
    131  NH1       -9.2520    1.0670   72.8970 N.pl3 289  ARG289      0.1354
    132  NH2      -10.4740    2.7830   72.0120 N.pl3 289  ARG289      0.1354
    133  N         -9.7240    5.0610   60.2650 N.3   367  ILE367     -0.1245
    134  CA       -10.7680    4.9090   61.2840 C.3   367  ILE367      0.1561
    135  C        -11.4010    6.2650   61.6820 C.2   367  ILE367      0.2260
    136  O        -12.6300    6.3620   61.8940 O.2   367  ILE367     -0.2867
    137  CB       -10.2650    4.1090   62.5180 C.3   367  ILE367      0.0252
    138  CG1       -9.6410    2.7810   62.0840 C.3   367  ILE367      0.0019
    139  CG2      -11.3930    3.8260   63.4860 C.3   367  ILE367      0.0019
    140  CD1      -10.5670    1.8510   61.2830 C.3   367  ILE367      0.0001
@<TRIPOS>BOND
     1     4     3    2
     2    23    21    1
     3    22    21    1
     4    27    26    2
     5     3     2    1
     6    33    32    2
     7    37    36    2
     8    21    18    1
     9    31    32    1
    10    31    30    1
    11    32    34   am
    12    26    30   am
    13    26    25    1
    14    18    19    1
    15    18    17    1
    16     2     1    1
    17     2     5    1
    18    36    35    1
    19    24    19   am
    20    24    25    1
    21     8     7    1
    22    19    20    2
    23    25    28    1
    24    34    35    1
    25     5     6    1
    26    28    29    1
    27     7     6    1
    28   133   134    1
    29   140   138    1
    30   134   135    1
    31   134   137    1
    32   135   136    2
    33    56    54   ar
    34    56    55   ar
    35    54    52   ar
    36   138   137    1
    37   137   139    1
    38    44    45    1
    39    44    43    1
    40    55    53   ar
    41    42    43    1
    42    42    39    1
    43    46    45    1
    44    52    53   ar
    45    52    51    1
    46    38    39    1
    47    39    40    1
    48    51    48    1
    49     9    10    1
    50    15    14    2
    51    48    47    1
    52    48    49    1
    53    40    41    2
    54    72    71   ar
    55    63    62    2
    56    10    13    1
    57    10    11    1
    58    14    16   am
    59    14    13    1
    60    49    50    2
    61    49    57   am
    62    71    73   ar
    63    71    70    1
    64    57    58    1
    65    11    12    2
    66    62    64   am
    67    62    61    1
    68    70    69    1
    69    69    66    1
    70    58    61    1
    71    58    59    1
    72    66    65    1
    73    66    67    1
    74    59    60    2
    75   121   119    1
    76    92    91    1
    77    92    93    1
    78    91    90    1
    79    67    68    2
    80    67    74   am
    81   120   119    1
    82   119   116    1
    83    86    87    1
    84   114   113    1
    85    74    75    1
    86    90    87    1
    87   112   113    1
    88   112   111    1
    89    87    88    1
    90   116   117    1
    91   116   115    1
    92    80    82   ar
    93    80    79   ar
    94    82    84   ar
    95    75    76    1
    96    75    78    1
    97   110   111    1
    98   110   107    1
    99   117   118    2
   100   109   108    2
   101    88    89    2
   102    76    77    2
   103   132   130    1
   104    78    79    1
   105    79    81   ar
   106    84    85    1
   107    84    83   ar
   108   108   107    1
   109   107   106    1
   110   131   130    1
   111   130   129    2
   112   106   100   am
   113    81    83   ar
   114   129   128    1
   115   100    99    1
   116   100   101    2
   117    99    98    1
   118    99   102    1
   119    97    96    2
   120    96    98   am
   121    96    95    1
   122   128   127    1
   123   102   103    1
   124    95    94    1
   125   104   103    2
   126   103   105   am
   127   127   126    1
   128   126   123    1
   129   123   122    1
   130   123   124    1
   131   124   125    2
