@<TRIPOS>MOLECULE
tmp/2iypC00.pdb
 117 112 0 0 0
SMALL
GASTEIGER

@<TRIPOS>ATOM
      1  N         -8.4880    7.2400   25.6170 N.3     8  VAL8       -0.1231
      2  CA        -9.4740    7.8140   24.7220 C.3     8  VAL8        0.1692
      3  C        -10.1840    6.6680   24.0340 C.2     8  VAL8        0.2593
      4  O         -9.5390    5.7380   23.5540 O.2     8  VAL8       -0.2718
      5  CB        -8.8110    8.7230   23.6620 C.3     8  VAL8        0.0266
      6  CG1       -9.8480    9.2490   22.6490 C.3     8  VAL8        0.0020
      7  CG2       -8.0690    9.8730   24.3280 C.3     8  VAL8        0.0020
      8  N        -11.5090    6.7340   23.9870 N.am    9  GLY9       -0.1942
      9  CA       -12.3080    5.6880   23.3620 C.3     9  GLY9        0.2014
     10  C        -12.9940    4.8080   24.3920 C.2     9  GLY9        0.2639
     11  O        -12.3980    3.8600   24.9140 O.2     9  GLY9       -0.2714
     12  N        -14.2570    5.1080   24.6780 N.am   10  MET10      -0.1963
     13  CA       -15.0100    4.3240   25.6460 C.3    10  MET10       0.1736
     14  C        -15.9050    3.2250   25.0490 C.2    10  MET10       0.2616
     15  O        -16.9100    2.8470   25.6500 O.2    10  MET10      -0.2715
     16  CB       -15.8000    5.2350   26.5750 C.3    10  MET10       0.0427
     17  CG       -14.9440    6.0930   27.4720 C.3    10  MET10       0.0599
     18  SD       -14.0530    5.1830   28.7440 S.3    10  MET10      -0.1393
     19  CE       -12.3900    5.1390   28.0820 C.3    10  MET10       0.0692
     20  N        -15.5320    2.6890   23.8880 N.am   11  ALA11      -0.1977
     21  CA       -16.1010    1.4090   23.4460 C.3    11  ALA11       0.1597
     22  C        -15.5330    0.3410   24.3810 C.2    11  ALA11       0.2287
     23  O        -14.5190    0.5780   25.0430 O.2    11  ALA11      -0.2864
     24  CB       -15.7560    1.1180   21.9880 C.3    11  ALA11       0.0319
     25  N        -12.0420    9.5910   28.1180 N.3    31  TYR31      -0.1227
     26  CA       -12.6250   10.4650   27.1090 C.3    31  TYR31       0.1736
     27  C        -13.1720    9.6830   25.9140 C.2    31  TYR31       0.2595
     28  O        -12.6270    8.6450   25.5420 O.2    31  TYR31      -0.2718
     29  CB       -11.5850   11.4820   26.6430 C.3    31  TYR31       0.0548
     30  CG       -12.0210   12.2530   25.4310 C.ar   31  TYR31      -0.0200
     31  CD1      -12.8710   13.3590   25.5500 C.ar   31  TYR31      -0.0009
     32  CD2      -11.6150   11.8560   24.1600 C.ar   31  TYR31      -0.0009
     33  CE1      -13.2920   14.0520   24.4250 C.ar   31  TYR31       0.0417
     34  CE2      -12.0280   12.5290   23.0400 C.ar   31  TYR31       0.0417
     35  CZ       -12.8580   13.6310   23.1690 C.ar   31  TYR31       0.1957
     36  OH       -13.2360   14.3070   22.0360 O.3    31  TYR31      -0.2866
     37  N        -14.2470   10.1890   25.3200 N.am   32  ASN32      -0.1960
     38  CA       -14.8100    9.6280   24.0900 C.3    32  ASN32       0.1819
     39  C        -15.2860   10.7580   23.1670 C.2    32  ASN32       0.2621
     40  O        -15.7550   11.7980   23.6450 O.2    32  ASN32      -0.2715
     41  CB       -15.9690    8.6680   24.4160 C.3    32  ASN32       0.1195
     42  CG       -16.2840    7.7050   23.2810 C.2    32  ASN32       0.2630
     43  OD1      -15.4620    6.8720   22.9260 O.2    32  ASN32      -0.2716
     44  ND2      -17.4820    7.7980   22.7330 N.am   32  ASN32      -0.0877
     45  N        -15.1570   10.5650   21.8550 N.am   33  ARG33      -0.1963
     46  CA       -15.6910   11.5160   20.8920 C.3    33  ARG33       0.1729
     47  C        -17.1740   11.7750   21.1860 C.2    33  ARG33       0.2616
     48  O        -17.5510   12.9090   21.4200 O.2    33  ARG33      -0.2715
     49  CB       -15.4760   11.0270   19.4640 C.3    33  ARG33       0.0348
     50  CG       -16.0880   11.9130   18.3920 C.3    33  ARG33       0.0492
     51  CD       -16.0440   11.2910   16.9970 C.3    33  ARG33       0.2205
     52  NE       -16.8080   10.0460   16.8870 N.pl3  33  ARG33      -0.0865
     53  CZ       -16.9720    9.3480   15.7630 C.cat  33  ARG33       0.5346
     54  NH1      -16.4390    9.7480   14.6190 N.pl3  33  ARG33       0.1354
     55  NH2      -17.6770    8.2330   15.7850 N.pl3  33  ARG33       0.1354
     56  N        -18.0050   10.7290   21.1950 N.am   34  THR34      -0.1951
     57  CA       -19.4150   10.8620   21.5790 C.3    34  THR34       0.1897
     58  C        -19.5250   10.8190   23.0870 C.2    34  THR34       0.2313
     59  O        -19.2110    9.8150   23.7110 O.2    34  THR34      -0.2863
     60  CB       -20.3070    9.7700   20.9450 C.3    34  THR34       0.1794
     61  OG1      -20.4000   10.0010   19.5400 O.3    34  THR34      -0.2208
     62  CG2      -21.7070    9.7980   21.5210 C.3    34  THR34       0.0378
     63  N        -21.4540    8.0800   25.8020 N.3    37  LYS37      -0.1245
     64  CA       -20.7650    6.8510   26.2100 C.3    37  LYS37       0.1561
     65  C        -19.8820    7.0800   27.4440 C.2    37  LYS37       0.2260
     66  O        -19.9580    6.3090   28.3960 O.2    37  LYS37      -0.2867
     67  CB       -19.9840    6.2200   25.0550 C.3    37  LYS37       0.0271
     68  CG       -20.8680    5.4930   24.0500 C.3    37  LYS37       0.0035
     69  CD       -20.0490    4.7240   23.0080 C.3    37  LYS37       0.0206
     70  CE       -20.8240    4.5550   21.6850 C.3    37  LYS37       0.1093
     71  NZ       -19.9740    4.0220   20.5690 N.3    37  LYS37      -0.1314
     72  N         -7.7460    4.0850   22.1530 N.3    72  MET72      -0.1230
     73  CA        -8.4010    2.8120   21.9110 C.3    72  MET72       0.1702
     74  C         -9.5540    3.0910   20.9930 C.2    72  MET72       0.2592
     75  O        -10.7040    2.8290   21.3190 O.2    72  MET72      -0.2718
     76  CB        -8.8950    2.1890   23.2150 C.3    72  MET72       0.0401
     77  CG        -7.7660    1.6860   24.1050 C.3    72  MET72       0.0596
     78  SD        -6.7720    0.4190   23.2940 S.3    72  MET72      -0.1393
     79  CE        -7.6120   -1.0690   23.8280 C.3    72  MET72       0.0692
     80  N         -9.2340    3.6550   19.8410 N.am   73  VAL73      -0.1966
     81  CA       -10.2490    4.0230   18.8850 C.3    73  VAL73       0.1727
     82  C        -10.1250    3.1930   17.6020 C.2    73  VAL73       0.2616
     83  O         -9.1300    2.4940   17.3950 O.2    73  VAL73      -0.2715
     84  CB       -10.2310    5.5360   18.5920 C.3    73  VAL73       0.0290
     85  CG1      -10.1200    6.3300   19.8990 C.3    73  VAL73       0.0023
     86  CG2       -9.1040    5.8950   17.6520 C.3    73  VAL73       0.0023
     87  N        -11.1620    3.2520   16.7660 N.am   74  GLN74      -0.1963
     88  CA       -11.1780    2.6020   15.4680 C.3    74  GLN74       0.1733
     89  C         -9.8190    2.7900   14.7760 C.2    74  GLN74       0.2616
     90  O         -9.2180    3.8600   14.8660 O.2    74  GLN74      -0.2715
     91  CB       -12.3120    3.2070   14.6380 C.3    74  GLN74       0.0408
     92  CG       -12.6270    2.4760   13.3350 C.3    74  GLN74       0.0908
     93  CD       -13.7050    3.1800   12.5140 C.2    74  GLN74       0.2608
     94  OE1      -13.5810    4.3580   12.1820 O.2    74  GLN74      -0.2717
     95  NE2      -14.7660    2.4540   12.1810 N.am   74  GLN74      -0.0878
     96  N         -9.3280    1.7410   14.1140 N.am   75  ALA75      -0.1977
     97  CA        -8.0490    1.8180   13.3890 C.3    75  ALA75       0.1597
     98  C         -8.1320    2.6650   12.1120 C.2    75  ALA75       0.2287
     99  O         -9.2270    2.9260   11.5910 O.2    75  ALA75      -0.2864
    100  CB        -7.4960    0.4210   13.0960 C.3    75  ALA75       0.0319
    101  N         -9.6600    7.2730   11.6380 N.3    78  ALA78      -0.1245
    102  CA       -10.2150    7.6640   12.9310 C.3    78  ALA78       0.1562
    103  C         -9.1530    7.8590   14.0160 C.2    78  ALA78       0.2260
    104  O         -9.3270    8.7060   14.9130 O.2    78  ALA78      -0.2867
    105  CB       -11.2360    6.6540   13.3830 C.3    78  ALA78       0.0290
    106  N         -7.0040   11.0970   12.9350 N.3    81  ALA81      -0.1231
    107  CA        -7.7640   12.2620   13.3780 C.3    81  ALA81       0.1694
    108  C         -7.6420   12.4730   14.8990 C.2    81  ALA81       0.2592
    109  O         -7.4120   13.5970   15.3530 O.2    81  ALA81      -0.2718
    110  CB        -9.2120   12.1300   12.9690 C.3    81  ALA81       0.0304
    111  N         -7.7870   11.3930   15.6730 N.am   82  THR82      -0.1953
    112  CA        -7.6600   11.4470   17.1330 C.3    82  THR82       0.1897
    113  C         -6.2770   11.9570   17.5560 C.2    82  THR82       0.2313
    114  O         -6.1840   12.9110   18.3300 O.2    82  THR82      -0.2863
    115  CB        -7.9870   10.0890   17.7980 C.3    82  THR82       0.1794
    116  OG1       -9.2900    9.6560   17.3920 O.3    82  THR82      -0.2208
    117  CG2       -7.9720   10.2150   19.2870 C.3    82  THR82       0.0378
@<TRIPOS>BOND
     1    99    98    2
     2   101   102    1
     3    98    97    1
     4    95    93   am
     5    94    93    2
     6    93    92    1
     7   102   105    1
     8   102   103    1
     9   106   107    1
    10   110   107    1
    11   100    97    1
    12    92    91    1
    13   107   108    1
    14    97    96    1
    15   103   104    2
    16    96    89   am
    17    54    53    1
    18    91    88    1
    19    89    90    2
    20    89    88    1
    21   108   109    2
    22   108   111   am
    23    88    87    1
    24   111   112    1
    25    53    55    1
    26    53    52    2
    27    87    82   am
    28    52    51    1
    29    51    50    1
    30   112   113    1
    31   112   115    1
    32   116   115    1
    33    83    82    2
    34   113   114    2
    35    82    81    1
    36    86    84    1
    37   115   117    1
    38    50    49    1
    39    84    81    1
    40    84    85    1
    41    81    80    1
    42    49    46    1
    43    61    60    1
    44    80    74   am
    45    71    70    1
    46    46    47    1
    47    46    45    1
    48    60    62    1
    49    60    57    1
    50    74    75    2
    51    74    73    1
    52    47    56   am
    53    47    48    2
    54    56    57    1
    55    57    58    1
    56    70    69    1
    57    45    39   am
    58    73    72    1
    59    73    76    1
    60    24    21    1
    61    36    35    1
    62     6     5    1
    63    44    42   am
    64    43    42    2
    65    69    68    1
    66    34    35   ar
    67    34    32   ar
    68    58    59    2
    69    39    40    2
    70    39    38    1
    71    35    33   ar
    72    76    77    1
    73    42    41    1
    74    78    79    1
    75    78    77    1
    76     9     8    1
    77     9    10    1
    78    21    20    1
    79    21    22    1
    80     4     3    2
    81     5     7    1
    82     5     2    1
    83    20    14   am
    84     8     3   am
    85     3     2    1
    86    68    67    1
    87    38    41    1
    88    38    37    1
    89    32    30   ar
    90    22    23    2
    91    10    12   am
    92    10    11    2
    93    33    31   ar
    94    12    13    1
    95     2     1    1
    96    14    13    1
    97    14    15    2
    98    67    64    1
    99    37    27   am
   100    30    31   ar
   101    30    29    1
   102    28    27    2
   103    13    16    1
   104    63    64    1
   105    27    26    1
   106    64    65    1
   107    16    17    1
   108    29    26    1
   109    26    25    1
   110    65    66    2
   111    17    18    1
   112    19    18    1
