@<TRIPOS>MOLECULE
tmp/2iyrB00.pdb
 113 105 0 0 0
SMALL
GASTEIGER

@<TRIPOS>ATOM
      1  N        -17.5930    8.4760   40.1100 N.3    10  PRO10      -0.2116
      2  CA       -18.6480    9.3590   39.6190 C.3    10  PRO10       0.1372
      3  C        -18.1990   10.1640   38.4190 C.2    10  PRO10       0.2244
      4  O        -17.1350   10.7670   38.4260 O.2    10  PRO10      -0.2868
      5  CB       -18.9460   10.2260   40.8320 C.3    10  PRO10       0.0268
      6  CG       -18.5970    9.2940   42.0240 C.3    10  PRO10       0.0207
      7  CD       -17.3690    8.6470   41.5660 C.3    10  PRO10       0.0892
      8  N        -20.4660    4.6590   34.9310 N.3    14  LYS14      -0.1245
      9  CA       -20.5910    3.2860   35.3740 C.3    14  LYS14       0.1561
     10  C        -22.0000    2.7040   35.2870 C.2    14  LYS14       0.2260
     11  O        -22.1580    1.6340   34.7460 O.2    14  LYS14      -0.2867
     12  CB       -20.0670    3.1610   36.8020 C.3    14  LYS14       0.0271
     13  CG       -20.1120    1.7620   37.3620 C.3    14  LYS14       0.0035
     14  CD       -19.4050    1.6760   38.7180 C.3    14  LYS14       0.0206
     15  CE       -20.3230    2.0850   39.8570 C.3    14  LYS14       0.1093
     16  NZ       -19.5880    2.3660   41.1540 N.3    14  LYS14      -0.1314
     17  N        -25.1300   -1.3200   45.4590 N.3    33  ASP33      -0.1239
     18  CA       -25.7600   -0.2770   46.2470 C.3    33  ASP33       0.1674
     19  C        -27.2600   -0.5700   46.3440 C.2    33  ASP33       0.2266
     20  O        -27.8400   -0.5650   47.4200 O.2    33  ASP33      -0.2867
     21  CB       -25.5570    1.0890   45.6110 C.3    33  ASP33       0.1410
     22  CG       -24.1700    1.6980   45.9080 C.2    33  ASP33       0.3668
     23  OD1      -23.4600    1.2530   46.8500 O.co2  33  ASP33      -0.2456
     24  OD2      -23.8200    2.6700   45.2090 O.co2  33  ASP33      -0.2456
     25  N        -28.8650    4.0740   51.5000 N.3    44  ILE44      -0.1245
     26  CA       -27.4380    4.2060   51.7940 C.3    44  ILE44       0.1561
     27  C        -27.1970    5.4340   52.6840 C.2    44  ILE44       0.2260
     28  O        -26.4290    5.3780   53.6530 O.2    44  ILE44      -0.2867
     29  CB       -26.6170    4.2960   50.5060 C.3    44  ILE44       0.0252
     30  CG1      -26.6670    2.9720   49.7580 C.3    44  ILE44       0.0019
     31  CG2      -25.2030    4.6510   50.7870 C.3    44  ILE44       0.0019
     32  CD1      -26.5990    3.1790   48.3330 C.3    44  ILE44       0.0001
     33  N        -25.3830    5.4450   56.3140 N.3    48  PHE48      -0.1241
     34  CA       -24.2920    6.4060   56.6060 C.3    48  PHE48       0.1605
     35  C        -24.6550    7.3770   57.7320 C.2    48  PHE48       0.2264
     36  O        -23.8690    7.5680   58.6540 O.2    48  PHE48      -0.2867
     37  CB       -23.9000    7.2250   55.3550 C.3    48  PHE48       0.0534
     38  CG       -22.7710    6.6300   54.5670 C.ar   48  PHE48      -0.0203
     39  CD1      -23.0120    5.6220   53.6330 C.ar   48  PHE48      -0.0042
     40  CD2      -21.4580    7.0390   54.7930 C.ar   48  PHE48      -0.0042
     41  CE1      -21.9580    5.0490   52.8860 C.ar   48  PHE48      -0.0003
     42  CE2      -20.3810    6.4840   54.0400 C.ar   48  PHE48      -0.0003
     43  CZ       -20.6230    5.4900   53.1000 C.ar   48  PHE48      -0.0000
     44  N        -21.4720    0.7240   57.2920 N.3    56  PHE56      -0.1227
     45  CA       -21.9020    0.5030   55.9320 C.3    56  PHE56       0.1736
     46  C        -20.9270   -0.4450   55.1790 C.2    56  PHE56       0.2595
     47  O        -21.3670   -1.3510   54.4860 O.2    56  PHE56      -0.2718
     48  CB       -22.0160    1.8100   55.2100 C.3    56  PHE56       0.0547
     49  CG       -22.2840    1.6610   53.7710 C.ar   56  PHE56      -0.0202
     50  CD1      -23.5760    1.4690   53.3230 C.ar   56  PHE56      -0.0042
     51  CD2      -21.2610    1.7190   52.8540 C.ar   56  PHE56      -0.0042
     52  CE1      -23.8180    1.3430   52.0000 C.ar   56  PHE56      -0.0003
     53  CE2      -21.5220    1.5740   51.5280 C.ar   56  PHE56      -0.0003
     54  CZ       -22.8030    1.3800   51.1080 C.ar   56  PHE56      -0.0000
     55  N        -19.6100   -0.2150   55.3400 N.am   57  ARG57      -0.1980
     56  CA       -18.5770   -0.9990   54.6660 C.3    57  ARG57       0.1597
     57  C        -18.6650   -2.4310   55.0320 C.2    57  ARG57       0.2287
     58  O        -18.4140   -3.3230   54.1800 O.2    57  ARG57      -0.2864
     59  CB       -17.1640   -0.4880   55.0030 C.3    57  ARG57       0.0334
     60  CG       -16.8170    0.8850   54.3930 C.3    57  ARG57       0.0492
     61  CD       -17.0500    1.0150   52.9050 C.3    57  ARG57       0.2205
     62  NE       -16.9880    2.4200   52.5280 N.pl3  57  ARG57      -0.0865
     63  CZ       -17.5080    2.9460   51.4360 C.cat  57  ARG57       0.5346
     64  NH1      -18.1600    2.2070   50.5460 N.pl3  57  ARG57       0.1354
     65  NH2      -17.3800    4.2340   51.2340 N.pl3  57  ARG57       0.1354
     66  N        -21.7960   -3.7410   53.0950 N.3    60  GLU60      -0.1245
     67  CA       -21.3030   -3.7930   51.7060 C.3    60  GLU60       0.1567
     68  C        -20.4100   -5.0260   51.4480 C.2    60  GLU60       0.2260
     69  O        -20.6280   -5.7360   50.4970 O.2    60  GLU60      -0.2867
     70  CB       -20.6140   -2.4760   51.3380 C.3    60  GLU60       0.0388
     71  CG       -20.1850   -2.3270   49.8780 C.3    60  GLU60       0.1160
     72  CD       -19.6060   -0.9490   49.5720 C.2    60  GLU60       0.3649
     73  OE1      -18.7050   -0.5050   50.3030 O.co2  60  GLU60      -0.2457
     74  OE2      -20.0150   -0.3220   48.5710 O.co2  60  GLU60      -0.2457
     75  N        -20.3800   -0.6120   44.0790 N.3    78  GLY78      -0.1210
     76  CA       -20.4330    0.6880   44.7090 C.3    78  GLY78       0.1956
     77  C        -19.0640    1.3220   44.8860 C.2    78  GLY78       0.2612
     78  O        -18.0840    0.6700   45.1800 O.2    78  GLY78      -0.2717
     79  N        -19.0270    2.6280   44.7210 N.am   79  GLY79      -0.1942
     80  CA       -17.7980    3.3580   44.5000 C.3    79  GLY79       0.2014
     81  C        -16.7560    3.3360   45.5890 C.2    79  GLY79       0.2639
     82  O        -15.5800    3.5500   45.2920 O.2    79  GLY79      -0.2714
     83  N        -17.1370    3.0730   46.8420 N.am   80  GLY80      -0.1954
     84  CA       -16.1260    2.9950   47.8970 C.3    80  GLY80       0.1869
     85  C        -15.8430    1.5870   48.4030 C.2    80  GLY80       0.2309
     86  O        -15.0880    1.4010   49.3680 O.2    80  GLY80      -0.2863
     87  N        -21.3930   12.0490   50.7080 N.3   116  LEU116     -0.1245
     88  CA       -19.9770   12.1690   50.4350 C.3   116  LEU116      0.1561
     89  C        -19.6030   13.3080   49.4390 C.2   116  LEU116      0.2260
     90  O        -18.4320   13.7050   49.4360 O.2   116  LEU116     -0.2867
     91  CB       -19.4210   10.8050   49.9620 C.3   116  LEU116      0.0270
     92  CG       -18.2740   10.0620   50.6890 C.3   116  LEU116      0.0019
     93  CD1      -18.2780   10.1540   52.2050 C.3   116  LEU116      0.0001
     94  CD2      -18.3340    8.5840   50.3180 C.3   116  LEU116      0.0001
     95  N        -11.5490   12.5280   46.7760 N.3   129  LEU129     -0.1245
     96  CA       -12.1620   11.2410   46.4670 C.3   129  LEU129      0.1561
     97  C        -11.4460   10.5740   45.3100 C.2   129  LEU129      0.2260
     98  O        -11.0380    9.4510   45.4480 O.2   129  LEU129     -0.2867
     99  CB       -13.6210   11.4440   46.0960 C.3   129  LEU129      0.0270
    100  CG       -14.4420   10.1750   45.8730 C.3   129  LEU129      0.0019
    101  CD1      -15.1720    9.8620   47.1450 C.3   129  LEU129      0.0001
    102  CD2      -15.4130   10.3670   44.7080 C.3   129  LEU129      0.0001
    103  N         -9.4080    6.9490   45.5430 N.3   133  ARG133     -0.1245
    104  CA        -9.9860    5.7510   44.9510 C.3   133  ARG133      0.1563
    105  C         -9.2650    5.2470   43.6730 C.2   133  ARG133      0.2260
    106  O         -9.1870    4.0560   43.4420 O.2   133  ARG133     -0.2867
    107  CB       -11.4620    5.9800   44.6250 C.3   133  ARG133      0.0307
    108  CG       -12.2900    6.5320   45.7400 C.3   133  ARG133      0.0489
    109  CD       -12.5840    5.4790   46.7280 C.3   133  ARG133      0.2205
    110  NE       -13.2960    6.0280   47.8720 N.pl3 133  ARG133     -0.0865
    111  CZ       -14.5600    6.4220   47.8480 C.cat 133  ARG133      0.5346
    112  NH1      -15.2750    6.3600   46.7270 N.pl3 133  ARG133      0.1354
    113  NH2      -15.1020    6.8820   48.9590 N.pl3 133  ARG133      0.1354
@<TRIPOS>BOND
     1    11    10    2
     2     8     9    1
     3    10     9    1
     4     9    12    1
     5    12    13    1
     6    13    14    1
     7     3     4    2
     8     3     2    1
     9    14    15    1
    10     2     1    1
    11     2     5    1
    12    15    16    1
    13     1     7    1
    14     5     6    1
    15     7     6    1
    16   106   105    2
    17   105   104    1
    18    75    76    1
    19    80    79    1
    20    80    81    1
    21   107   104    1
    22   107   108    1
    23   102   100    1
    24    76    77    1
    25    79    77   am
    26    77    78    2
    27   104   103    1
    28    24    22   ar
    29    82    81    2
    30    97    98    2
    31    97    96    1
    32    17    18    1
    33    81    83   am
    34    21    22    1
    35    21    18    1
    36   108   109    1
    37   100    99    1
    38   100   101    1
    39    22    23   ar
    40    99    96    1
    41    18    19    1
    42    19    20    2
    43    96    95    1
    44   112   111    1
    45   109   110    1
    46    83    84    1
    47   111   110    2
    48   111   113    1
    49    84    85    1
    50    32    30    1
    51    85    86    2
    52    74    72   ar
    53    90    89    2
    54    89    88    1
    55    72    71    1
    56    72    73   ar
    57    30    29    1
    58    71    70    1
    59    91    88    1
    60    91    92    1
    61    94    92    1
    62    88    87    1
    63    69    68    2
    64    29    31    1
    65    29    26    1
    66    64    63    1
    67    92    93    1
    68    54    53   ar
    69    54    52   ar
    70    65    63    1
    71    70    67    1
    72    63    62    2
    73    68    67    1
    74    25    26    1
    75    53    51   ar
    76    67    66    1
    77    26    27    1
    78    52    50   ar
    79    62    61    1
    80    27    28    2
    81    51    49   ar
    82    41    43   ar
    83    41    39   ar
    84    61    60    1
    85    43    42   ar
    86    50    49   ar
    87    39    38   ar
    88    49    48    1
    89    42    40   ar
    90    58    57    2
    91    60    59    1
    92    47    46    2
    93    38    40   ar
    94    38    37    1
    95    56    59    1
    96    56    57    1
    97    56    55    1
    98    46    55   am
    99    46    45    1
   100    48    45    1
   101    37    34    1
   102    45    44    1
   103    33    34    1
   104    34    35    1
   105    35    36    2
