@<TRIPOS>MOLECULE
tmp/2iyvA00.pdb
 137 133 0 0 0
SMALL
GASTEIGER

@<TRIPOS>ATOM
      1  N         32.8540   22.0550  -11.2130 N.3    10  PRO10      -0.2102
      2  CA        33.3950   20.7250  -11.0720 C.3    10  PRO10       0.1504
      3  C         34.6180   20.7340  -10.1620 C.2    10  PRO10       0.2576
      4  O         35.4740   21.6000  -10.2600 O.2    10  PRO10      -0.2718
      5  CB        33.7490   20.3350  -12.5110 C.3    10  PRO10       0.0282
      6  CG        32.8810   21.2100  -13.3560 C.3    10  PRO10       0.0208
      7  CD        32.8590   22.4910  -12.6170 C.3    10  PRO10       0.0893
      8  N         34.6580   19.7960   -9.2340 N.am   11  GLY11      -0.1943
      9  CA        35.7700   19.7530   -8.2910 C.3    11  GLY11       0.2014
     10  C         35.5940   20.5890   -7.0400 C.2    11  GLY11       0.2640
     11  O         36.3760   20.5050   -6.1140 O.2    11  GLY11      -0.2714
     12  N         34.5360   21.3820   -6.9690 N.am   12  SER12      -0.1935
     13  CA        34.3170   22.2360   -5.8150 C.3    12  SER12       0.2055
     14  C         33.9900   21.4730   -4.5470 C.2    12  SER12       0.2644
     15  O         34.1960   21.9770   -3.4440 O.2    12  SER12      -0.2714
     16  CB        33.2350   23.2760   -6.0880 C.3    12  SER12       0.2130
     17  OG        31.9680   22.7390   -6.3970 O.3    12  SER12      -0.2179
     18  N         33.5300   20.2430   -4.7120 N.am   13  GLY13      -0.1939
     19  CA        33.2610   19.3550   -3.6010 C.3    13  GLY13       0.2014
     20  C         31.8160   18.9430   -3.4310 C.2    13  GLY13       0.2639
     21  O         31.4250   18.5310   -2.3500 O.2    13  GLY13      -0.2714
     22  N         30.9870   19.0870   -4.4620 N.am   14  LYS14      -0.1963
     23  CA        29.5680   18.7120   -4.3290 C.3    14  LYS14       0.1728
     24  C         29.3690   17.2650   -3.8470 C.2    14  LYS14       0.2617
     25  O         28.5530   16.9880   -2.9510 O.2    14  LYS14      -0.2715
     26  CB        28.8150   18.9790   -5.6240 C.3    14  LYS14       0.0311
     27  CG        28.7410   20.4900   -5.9720 C.3    14  LYS14       0.0038
     28  CD        27.9750   20.7340   -7.2640 C.3    14  LYS14       0.0206
     29  CE        28.5950   20.0960   -8.4860 C.3    14  LYS14       0.1093
     30  NZ        30.0100   20.4870   -8.7530 N.3    14  LYS14      -0.1314
     31  N         30.1170   16.3440   -4.4260 N.am   15  SER15      -0.1936
     32  CA        30.0220   14.9500   -4.0280 C.3    15  SER15       0.2055
     33  C         30.6170   14.7340   -2.6230 C.2    15  SER15       0.2644
     34  O         30.0220   14.0950   -1.7620 O.2    15  SER15      -0.2714
     35  CB        30.7540   14.0550   -5.0370 C.3    15  SER15       0.2130
     36  OG        30.3090   14.2820   -6.3550 O.3    15  SER15      -0.2179
     37  N         31.8310   15.2290   -2.4230 N.am   16  THR16      -0.1936
     38  CA        32.5690   15.0150   -1.1840 C.3    16  THR16       0.2028
     39  C         31.9160   15.7060    0.0070 C.2    16  THR16       0.2642
     40  O         31.6900   15.1160    1.0810 O.2    16  THR16      -0.2714
     41  CB        33.9790   15.5830   -1.3490 C.3    16  THR16       0.1808
     42  OG1       34.6600   14.9240   -2.4310 O.3    16  THR16      -0.2208
     43  CG2       34.8000   15.4120   -0.0740 C.3    16  THR16       0.0379
     44  N         31.6090   16.9730   -0.1780 N.am   17  ILE17      -0.1977
     45  CA        30.8990   17.7190    0.8570 C.3    17  ILE17       0.1596
     46  C         29.4530   17.2270    1.0230 C.2    17  ILE17       0.2287
     47  O         28.9730   17.1480    2.1330 O.2    17  ILE17      -0.2864
     48  CB        30.9210   19.2400    0.5880 C.3    17  ILE17       0.0276
     49  CG1       32.3820   19.7370    0.4590 C.3    17  ILE17       0.0022
     50  CG2       30.2440   20.0300    1.6950 C.3    17  ILE17       0.0022
     51  CD1       33.3020   19.3920    1.5770 C.3    17  ILE17       0.0001
     52  N         42.5610   25.3700   -8.9960 N.3   105  GLU105     -0.1245
     53  CA        42.2190   24.3040   -8.0650 C.3   105  GLU105      0.1567
     54  C         41.1470   23.3620   -8.6090 C.2   105  GLU105      0.2260
     55  O         41.1830   22.1750   -8.3890 O.2   105  GLU105     -0.2867
     56  CB        41.8120   24.9140   -6.7280 C.3   105  GLU105      0.0388
     57  CG        41.4700   23.9380   -5.6330 C.3   105  GLU105      0.1160
     58  CD        42.6510   23.1540   -5.0750 C.2   105  GLU105      0.3649
     59  OE1       43.8160   23.3170   -5.5360 O.co2 105  GLU105     -0.2457
     60  OE2       42.3930   22.3510   -4.1420 O.co2 105  GLU105     -0.2457
     61  N         42.8370   21.1070  -11.0830 N.3   108  ARG108     -0.1231
     62  CA        43.6170   20.0920  -10.3390 C.3   108  ARG108      0.1694
     63  C         42.7240   19.0030   -9.7550 C.2   108  ARG108      0.2592
     64  O         42.9830   17.8160   -9.9020 O.2   108  ARG108     -0.2718
     65  CB        44.3910   20.7490   -9.2060 C.3   108  ARG108      0.0321
     66  CG        45.2660   19.7900   -8.4490 C.3   108  ARG108      0.0489
     67  CD        45.8950   20.4110   -7.2320 C.3   108  ARG108      0.2205
     68  NE        44.9180   20.6120   -6.1300 N.pl3 108  ARG108     -0.0865
     69  CZ        44.4390   19.6500   -5.3390 C.cat 108  ARG108      0.5346
     70  NH1       44.7520   18.3960   -5.5110 N.pl3 108  ARG108      0.1354
     71  NH2       43.6730   19.9450   -4.3240 N.pl3 108  ARG108      0.1354
     72  N         41.6330   19.4250   -9.1180 N.am  109  ARG109     -0.1966
     73  CA        40.7420   18.4950   -8.4390 C.3   109  ARG109      0.1729
     74  C         39.8780   17.6520   -9.3770 C.2   109  ARG109      0.2616
     75  O         39.1990   16.7040   -8.9350 O.2   109  ARG109     -0.2715
     76  CB        39.8070   19.2620   -7.5320 C.3   109  ARG109      0.0348
     77  CG        40.4190   19.7840   -6.2990 C.3   109  ARG109      0.0492
     78  CD        39.2890   20.2150   -5.3950 C.3   109  ARG109      0.2205
     79  NE        39.7650   21.0920   -4.3550 N.pl3 109  ARG109     -0.0865
     80  CZ        38.9900   21.8520   -3.5980 C.cat 109  ARG109      0.5346
     81  NH1       39.5600   22.6080   -2.6860 N.pl3 109  ARG109      0.1354
     82  NH2       37.6560   21.8720   -3.7470 N.pl3 109  ARG109      0.1354
     83  N         39.9120   17.9610  -10.6640 N.am  110  THR110     -0.1951
     84  CA        39.1800   17.1830  -11.6550 C.3   110  THR110      0.1897
     85  C         40.1000   16.4670  -12.6540 C.2   110  THR110      0.2313
     86  O         39.6790   16.0690  -13.7270 O.2   110  THR110     -0.2863
     87  CB        38.1460   18.0400  -12.3840 C.3   110  THR110      0.1794
     88  OG1       38.7530   19.1720  -13.0150 O.3   110  THR110     -0.2208
     89  CG2       37.1320   18.5660  -11.3960 C.3   110  THR110      0.0378
     90  N         36.5400   26.8970   -0.6980 N.3   149  THR149     -0.1203
     91  CA        37.0970   25.5560   -0.4900 C.3   149  THR149      0.1994
     92  C         38.5450   25.4410   -0.9420 C.2   149  THR149      0.2617
     93  O         39.0950   24.3710   -0.8710 O.2   149  THR149     -0.2717
     94  CB        36.2980   24.4570   -1.2260 C.3   149  THR149      0.1784
     95  OG1       36.5610   24.5210   -2.6450 O.3   149  THR149     -0.2211
     96  CG2       34.8020   24.5390   -0.9710 C.3   149  THR149      0.0376
     97  N         39.1420   26.5160   -1.4440 N.am  150  ASN150     -0.1974
     98  CA        40.5300   26.4470   -1.9230 C.3   150  ASN150      0.1688
     99  C         41.5310   26.0680   -0.8330 C.2   150  ASN150      0.2292
    100  O         42.4890   25.3330   -1.1110 O.2   150  ASN150     -0.2864
    101  CB        40.9430   27.7770   -2.5370 C.3   150  ASN150      0.1181
    102  CG        40.2000   28.0800   -3.8090 C.2   150  ASN150      0.2629
    103  OD1       40.2350   27.3040   -4.7530 O.2   150  ASN150     -0.2716
    104  ND2       39.4760   29.1960   -3.8330 N.am  150  ASN150     -0.0877
    105  N         40.4630   25.2000    2.5940 N.3   152  ARG152     -0.1231
    106  CA        39.8540   24.4000    3.6430 C.3   152  ARG152      0.1694
    107  C         39.7630   22.9750    3.1720 C.2   152  ARG152      0.2592
    108  O         39.2260   22.7320    2.0830 O.2   152  ARG152     -0.2718
    109  CB        38.4490   24.8840    3.9520 C.3   152  ARG152      0.0321
    110  CG        38.3530   26.2340    4.5660 C.3   152  ARG152      0.0489
    111  CD        36.9150   26.4980    4.9510 C.3   152  ARG152      0.2205
    112  NE        36.7260   27.7380    5.6920 N.pl3 152  ARG152     -0.0865
    113  CZ        36.5760   28.9320    5.1430 C.cat 152  ARG152      0.5346
    114  NH1       36.6120   29.0750    3.8270 N.pl3 152  ARG152      0.1354
    115  NH2       36.4160   30.0050    5.9090 N.pl3 152  ARG152      0.1354
    116  N         40.2020   22.0290    3.9950 N.am  153  ASN153     -0.1961
    117  CA        39.9320   20.6110    3.7120 C.3   153  ASN153      0.1804
    118  C         38.4520   20.2710    3.8950 C.2   153  ASN153      0.2463
    119  O         37.6900   21.0860    4.4100 O.2   153  ASN153     -0.2730
    120  CB        40.8600   19.6690    4.5080 C.3   153  ASN153      0.1195
    121  CG        40.7050   19.7840    5.9900 C.2   153  ASN153      0.2630
    122  OD1       39.6070   19.8920    6.5070 O.2   153  ASN153     -0.2716
    123  ND2       41.8230   19.7150    6.7040 N.am  153  ASN153     -0.0877
    124  N         38.0260   19.1080    3.3980 N.am  154  PRO154     -0.2727
    125  CA        36.5870   18.7960    3.4910 C.3   154  PRO154      0.1402
    126  C         35.9970   18.8980    4.8890 C.2   154  PRO154      0.2269
    127  O         34.8780   19.3780    5.0570 O.2   154  PRO154     -0.2865
    128  CB        36.4900   17.4090    2.9020 C.3   154  PRO154      0.0296
    129  CG        37.6240   17.3660    1.9130 C.3   154  PRO154      0.0237
    130  CD        38.7370   18.1030    2.5880 C.3   154  PRO154      0.0939
    131  N         35.4480   22.5260    5.6360 N.3   157  VAL157     -0.1245
    132  CA        34.2970   23.0080    4.8770 C.3   157  VAL157      0.1561
    133  C         32.9910   22.6240    5.5710 C.2   157  VAL157      0.2260
    134  O         32.0930   23.4720    5.7380 O.2   157  VAL157     -0.2867
    135  CB        34.3380   22.4800    3.4520 C.3   157  VAL157      0.0252
    136  CG1       33.0330   22.8500    2.7180 C.3   157  VAL157      0.0019
    137  CG2       35.5230   23.0440    2.6760 C.3   157  VAL157      0.0019
@<TRIPOS>BOND
     1    86    85    2
     2     6     7    1
     3     6     5    1
     4    88    87    1
     5    85    84    1
     6     7     1    1
     7     5     2    1
     8    87    84    1
     9    87    89    1
    10    84    83    1
    11     1     2    1
    12    61    62    1
    13     2     3    1
    14    83    74   am
    15    62    63    1
    16    62    65    1
    17     4     3    2
    18     3     8   am
    19    64    63    2
    20    63    72   am
    21    74    75    2
    22    74    73    1
    23     8     9    1
    24    65    66    1
    25    72    73    1
    26    52    53    1
    27    30    29    1
    28    54    55    2
    29    54    53    1
    30    29    28    1
    31    66    67    1
    32    73    76    1
    33     9    10    1
    34    53    56    1
    35    76    77    1
    36    28    27    1
    37    67    68    1
    38    10    12   am
    39    10    11    2
    40    12    13    1
    41    56    57    1
    42    17    16    1
    43    36    35    1
    44    77    78    1
    45    68    69    2
    46    16    13    1
    47    27    26    1
    48    13    14    1
    49    57    58    1
    50    26    23    1
    51    59    58   ar
    52    70    69    1
    53    78    79    1
    54    69    71    1
    55    58    60   ar
    56    35    32    1
    57   103   102    2
    58    18    14   am
    59    18    19    1
    60    14    15    2
    61    22    23    1
    62    22    20   am
    63    31    32    1
    64    31    24   am
    65    79    80    2
    66    23    24    1
    67    32    33    1
    68    24    25    2
    69   104   102   am
    70   102   101    1
    71    82    80    1
    72    19    20    1
    73    80    81    1
    74    20    21    2
    75    95    94    1
    76    33    37   am
    77    33    34    2
    78   101    98    1
    79    42    41    1
    80    37    38    1
    81    98    97    1
    82    98    99    1
    83    97    92   am
    84    41    38    1
    85    41    43    1
    86    94    96    1
    87    94    91    1
    88    38    39    1
    89   100    99    2
    90    92    93    2
    91    92    91    1
    92    90    91    1
    93    44    39   am
    94    44    45    1
    95    39    40    2
    96    49    48    1
    97    49    51    1
    98    48    45    1
    99    48    50    1
   100    45    46    1
   101    46    47    2
   102   129   130    1
   103   129   128    1
   104   108   107    2
   105   130   124    1
   106   105   106    1
   107   137   135    1
   108   136   135    1
   109   128   125    1
   110   107   106    1
   111   107   116   am
   112   124   125    1
   113   124   118   am
   114   135   132    1
   115   125   126    1
   116   106   109    1
   117   117   118    1
   118   117   116    1
   119   117   120    1
   120   114   113    1
   121   118   119    2
   122   109   110    1
   123   120   121    1
   124   110   111    1
   125   132   133    1
   126   132   131    1
   127   126   127    2
   128   111   112    1
   129   113   112    2
   130   113   115    1
   131   133   134    2
   132   121   122    2
   133   121   123   am
