@<TRIPOS>MOLECULE
tmp/2iywA00.pdb
 139 135 0 0 0
SMALL
GASTEIGER

@<TRIPOS>ATOM
      1  N         33.0230   22.2620  -11.3910 N.3    10  PRO10      -0.2102
      2  CA        33.5910   20.9240  -11.2660 C.3    10  PRO10       0.1504
      3  C         34.8150   20.9500  -10.3560 C.2    10  PRO10       0.2576
      4  O         35.6500   21.8530  -10.4390 O.2    10  PRO10      -0.2718
      5  CB        33.9550   20.5380  -12.7240 C.3    10  PRO10       0.0282
      6  CG        33.1570   21.4780  -13.5770 C.3    10  PRO10       0.0208
      7  CD        33.0510   22.7410  -12.7850 C.3    10  PRO10       0.0893
      8  N         34.8760   19.9870   -9.4510 N.am   11  GLY11      -0.1943
      9  CA        35.9480   19.9080   -8.4730 C.3    11  GLY11       0.2014
     10  C         35.7690   20.7620   -7.2340 C.2    11  GLY11       0.2640
     11  O         36.5990   20.7040   -6.3300 O.2    11  GLY11      -0.2714
     12  N         34.6880   21.5480   -7.1590 N.am   12  SER12      -0.1935
     13  CA        34.4660   22.3990   -5.9970 C.3    12  SER12       0.2055
     14  C         34.1600   21.6070   -4.7180 C.2    12  SER12       0.2644
     15  O         34.3330   22.1170   -3.6100 O.2    12  SER12      -0.2714
     16  CB        33.3530   23.4160   -6.2620 C.3    12  SER12       0.2130
     17  OG        32.1220   22.8180   -6.5780 O.3    12  SER12      -0.2179
     18  N         33.6910   20.3770   -4.8720 N.am   13  GLY13      -0.1939
     19  CA        33.4210   19.5060   -3.7270 C.3    13  GLY13       0.2014
     20  C         31.9730   19.1050   -3.5320 C.2    13  GLY13       0.2639
     21  O         31.6010   18.6320   -2.4600 O.2    13  GLY13      -0.2714
     22  N         31.1460   19.2480   -4.5620 N.am   14  LYS14      -0.1963
     23  CA        29.7140   18.9060   -4.4210 C.3    14  LYS14       0.1728
     24  C         29.5040   17.4610   -3.9200 C.2    14  LYS14       0.2617
     25  O         28.6760   17.2100   -3.0400 O.2    14  LYS14      -0.2715
     26  CB        28.9740   19.1470   -5.7310 C.3    14  LYS14       0.0311
     27  CG        28.8930   20.6250   -6.1230 C.3    14  LYS14       0.0038
     28  CD        28.1190   20.8240   -7.4340 C.3    14  LYS14       0.0206
     29  CE        28.7480   20.1460   -8.6430 C.3    14  LYS14       0.1093
     30  NZ        30.2090   20.4880   -8.8600 N.3    14  LYS14      -0.1314
     31  N         30.2890   16.5250   -4.4360 N.am   15  SER15      -0.1936
     32  CA        30.1730   15.1190   -4.0140 C.3    15  SER15       0.2055
     33  C         30.7760   14.8880   -2.6340 C.2    15  SER15       0.2644
     34  O         30.1200   14.3810   -1.7210 O.2    15  SER15      -0.2714
     35  CB        30.8510   14.2210   -5.0440 C.3    15  SER15       0.2130
     36  OG        30.1660   14.3100   -6.2670 O.3    15  SER15      -0.2179
     37  N         32.0360   15.2830   -2.4890 N.am   16  THR16      -0.1936
     38  CA        32.7800   15.1480   -1.2230 C.3    16  THR16       0.2028
     39  C         32.1110   15.8380   -0.0420 C.2    16  THR16       0.2642
     40  O         31.9060   15.2360    1.0220 O.2    16  THR16      -0.2714
     41  CB        34.1860   15.7390   -1.3930 C.3    16  THR16       0.1808
     42  OG1       34.8190   15.1230   -2.5210 O.3    16  THR16      -0.2208
     43  CG2       35.0160   15.5150   -0.1510 C.3    16  THR16       0.0379
     44  N         31.7790   17.1140   -0.2270 N.am   17  ILE17      -0.1977
     45  CA        31.1010   17.8800    0.8110 C.3    17  ILE17       0.1596
     46  C         29.6540   17.4040    1.0180 C.2    17  ILE17       0.2287
     47  O         29.1680   17.3670    2.1510 O.2    17  ILE17      -0.2864
     48  CB        31.1260   19.3850    0.4900 C.3    17  ILE17       0.0276
     49  CG1       32.5810   19.8580    0.2920 C.3    17  ILE17       0.0022
     50  CG2       30.4200   20.1970    1.5800 C.3    17  ILE17       0.0022
     51  CD1       33.5270   19.6260    1.4810 C.3    17  ILE17       0.0001
     52  N         28.5310   14.2870    0.7070 N.3    19  ARG19      -0.1245
     53  CA        28.5850   13.1010    1.5610 C.3    19  ARG19       0.1563
     54  C         28.9190   13.4500    2.9990 C.2    19  ARG19       0.2260
     55  O         28.2320   13.0190    3.9160 O.2    19  ARG19      -0.2867
     56  CB        29.6300   12.1060    1.0600 C.3    19  ARG19       0.0307
     57  CG        29.2830   11.4490   -0.2610 C.3    19  ARG19       0.0489
     58  CD        30.2990   10.3610   -0.6030 C.3    19  ARG19       0.2205
     59  NE        31.4780   10.9040   -1.2800 N.pl3  19  ARG19      -0.0865
     60  CZ        31.6480   10.9540   -2.6030 C.cat  19  ARG19       0.5346
     61  NH1       30.7200   10.4860   -3.4420 N.pl3  19  ARG19       0.1354
     62  NH2       32.7650   11.4710   -3.0990 N.pl3  19  ARG19       0.1354
     63  N         43.2260   21.3250  -11.1010 N.3   108  ARG108     -0.1231
     64  CA        43.9700   20.3260  -10.3150 C.3   108  ARG108      0.1694
     65  C         43.0550   19.2390   -9.7720 C.2   108  ARG108      0.2592
     66  O         43.3540   18.0490   -9.8850 O.2   108  ARG108     -0.2718
     67  CB        44.6900   20.9810   -9.1540 C.3   108  ARG108      0.0321
     68  CG        45.6020   20.0270   -8.4080 C.3   108  ARG108      0.0489
     69  CD        46.2190   20.6870   -7.2010 C.3   108  ARG108      0.2205
     70  NE        45.2740   20.9550   -6.1070 N.pl3 108  ARG108     -0.0865
     71  CZ        44.7320   20.0440   -5.3010 C.cat 108  ARG108      0.5346
     72  NH1       44.9720   18.7550   -5.4620 N.pl3 108  ARG108      0.1354
     73  NH2       43.9360   20.4330   -4.3230 N.pl3 108  ARG108      0.1354
     74  N         41.9380   19.6680   -9.1780 N.am  109  ARG109     -0.1966
     75  CA        40.9800   18.7610   -8.5380 C.3   109  ARG109      0.1729
     76  C         40.0680   17.9940   -9.5040 C.2   109  ARG109      0.2616
     77  O         39.2550   17.1700   -9.0750 O.2   109  ARG109     -0.2715
     78  CB        40.1880   19.5260   -7.4600 C.3   109  ARG109      0.0348
     79  CG        41.0240   19.6960   -6.1850 C.3   109  ARG109      0.0492
     80  CD        40.7490   20.9190   -5.3250 C.3   109  ARG109      0.2205
     81  NE        39.3550   21.0600   -4.9320 N.pl3 109  ARG109     -0.0865
     82  CZ        38.9100   21.8580   -3.9600 C.cat 109  ARG109      0.5346
     83  NH1       39.7450   22.5960   -3.2420 N.pl3 109  ARG109      0.1354
     84  NH2       37.6090   21.9380   -3.7200 N.pl3 109  ARG109      0.1354
     85  N         40.2140   18.2350  -10.8010 N.am  110  THR110     -0.1951
     86  CA        39.4930   17.4680  -11.8020 C.3   110  THR110      0.1897
     87  C         40.4440   16.7530  -12.7840 C.2   110  THR110      0.2313
     88  O         40.1090   16.5560  -13.9390 O.2   110  THR110     -0.2863
     89  CB        38.4590   18.3330  -12.5510 C.3   110  THR110      0.1794
     90  OG1       39.0890   19.4760  -13.1470 O.3   110  THR110     -0.2208
     91  CG2       37.3850   18.7990  -11.5950 C.3   110  THR110      0.0378
     92  N         36.7070   27.1380   -0.7670 N.3   149  THR149     -0.1203
     93  CA        37.2870   25.8020   -0.5760 C.3   149  THR149      0.1994
     94  C         38.7510   25.7270   -1.0260 C.2   149  THR149      0.2617
     95  O         39.3480   24.6590   -0.9560 O.2   149  THR149     -0.2717
     96  CB        36.5090   24.7190   -1.3190 C.3   149  THR149      0.1784
     97  OG1       36.7830   24.7940   -2.7220 O.3   149  THR149     -0.2211
     98  CG2       34.9930   24.8540   -1.0510 C.3   149  THR149      0.0376
     99  N         39.3140   26.8340   -1.5060 N.am  150  ASN150     -0.1974
    100  CA        40.6810   26.7950   -2.0370 C.3   150  ASN150      0.1688
    101  C         41.7070   26.4120   -0.9740 C.2   150  ASN150      0.2292
    102  O         42.6520   25.6820   -1.2620 O.2   150  ASN150     -0.2864
    103  CB        41.0680   28.1280   -2.6670 C.3   150  ASN150      0.1181
    104  CG        40.3640   28.3760   -3.9630 C.2   150  ASN150      0.2629
    105  OD1       40.4550   27.5730   -4.9020 O.2   150  ASN150     -0.2716
    106  ND2       39.6310   29.4870   -4.0320 N.am  150  ASN150     -0.0877
    107  N         40.6970   25.4140    2.4270 N.3   152  ARG152     -0.1231
    108  CA        40.0890   24.6240    3.4890 C.3   152  ARG152      0.1694
    109  C         39.9690   23.2060    2.9830 C.2   152  ARG152      0.2592
    110  O         39.4880   22.9940    1.8690 O.2   152  ARG152     -0.2718
    111  CB        38.6840   25.1290    3.8240 C.3   152  ARG152      0.0321
    112  CG        38.6060   26.4370    4.5220 C.3   152  ARG152      0.0489
    113  CD        37.1900   26.6530    5.0590 C.3   152  ARG152      0.2205
    114  NE        37.0360   27.9510    5.7100 N.pl3 152  ARG152     -0.0865
    115  CZ        36.6340   29.0700    5.1130 C.cat 152  ARG152      0.5346
    116  NH1       36.3220   29.0820    3.8260 N.pl3 152  ARG152      0.1354
    117  NH2       36.5410   30.1900    5.8160 N.pl3 152  ARG152      0.1354
    118  N         40.3850   22.2390    3.7950 N.am  153  ASN153     -0.1961
    119  CA        40.1610   20.8260    3.4790 C.3   153  ASN153      0.1804
    120  C         38.6710   20.4860    3.7120 C.2   153  ASN153      0.2463
    121  O         37.9450   21.3130    4.2820 O.2   153  ASN153     -0.2730
    122  CB        41.1090   19.9250    4.2890 C.3   153  ASN153      0.1195
    123  CG        40.9450   20.0850    5.7940 C.2   153  ASN153      0.2630
    124  OD1       39.8470   19.9640    6.3290 O.2   153  ASN153     -0.2716
    125  ND2       42.0500   20.3460    6.4840 N.am  153  ASN153     -0.0877
    126  N         38.1960   19.3100    3.2510 N.am  154  PRO154     -0.2727
    127  CA        36.7510   19.0150    3.3720 C.3   154  PRO154      0.1402
    128  C         36.1700   19.0710    4.7930 C.2   154  PRO154      0.2269
    129  O         35.0560   19.5650    4.9810 O.2   154  PRO154     -0.2865
    130  CB        36.6380   17.6090    2.7840 C.3   154  PRO154      0.0296
    131  CG        37.7510   17.5320    1.8450 C.3   154  PRO154      0.0237
    132  CD        38.8880   18.2290    2.5320 C.3   154  PRO154      0.0939
    133  N         35.6380   22.7190    5.6080 N.3   157  VAL157     -0.1245
    134  CA        34.4900   23.2010    4.8480 C.3   157  VAL157      0.1561
    135  C         33.1790   22.7630    5.5190 C.2   157  VAL157      0.2260
    136  O         32.2620   23.5690    5.6910 O.2   157  VAL157     -0.2867
    137  CB        34.5500   22.7040    3.3700 C.3   157  VAL157      0.0252
    138  CG1       33.2810   23.0580    2.5990 C.3   157  VAL157      0.0019
    139  CG2       35.7560   23.2840    2.6600 C.3   157  VAL157      0.0019
@<TRIPOS>BOND
     1    88    87    2
     2     6     7    1
     3     6     5    1
     4    90    89    1
     5     7     1    1
     6    87    86    1
     7     5     2    1
     8    89    86    1
     9    89    91    1
    10    86    85    1
    11     1     2    1
    12     2     3    1
    13    63    64    1
    14    85    76   am
    15     4     3    2
    16     3     8   am
    17    64    65    1
    18    64    67    1
    19    66    65    2
    20    65    74   am
    21    76    77    2
    22    76    75    1
    23     8     9    1
    24    74    75    1
    25    67    68    1
    26    30    29    1
    27    29    28    1
    28    75    78    1
    29     9    10    1
    30    68    69    1
    31    78    79    1
    32    28    27    1
    33    10    12   am
    34    10    11    2
    35    69    70    1
    36    12    13    1
    37    17    16    1
    38    36    35    1
    39    16    13    1
    40    79    80    1
    41    27    26    1
    42    70    71    2
    43    13    14    1
    44    26    23    1
    45    72    71    1
    46    80    81    1
    47    71    73    1
    48    35    32    1
    49    81    82    2
    50   105   104    2
    51    18    14   am
    52    18    19    1
    53    14    15    2
    54    22    23    1
    55    22    20   am
    56    31    32    1
    57    31    24   am
    58    23    24    1
    59   106   104   am
    60    32    33    1
    61   104   103    1
    62    82    84    1
    63    82    83    1
    64    24    25    2
    65    19    20    1
    66    20    21    2
    67    61    60    1
    68    62    60    1
    69    97    96    1
    70   103   100    1
    71    33    37   am
    72    33    34    2
    73    60    59    2
    74    42    41    1
    75    37    38    1
    76   100    99    1
    77   100   101    1
    78    99    94   am
    79    41    38    1
    80    41    43    1
    81    96    98    1
    82    96    93    1
    83    59    58    1
    84   102   101    2
    85    38    39    1
    86    94    95    2
    87    94    93    1
    88    92    93    1
    89    58    57    1
    90    57    56    1
    91    44    39   am
    92    44    45    1
    93    39    40    2
    94    49    48    1
    95    49    51    1
    96    48    45    1
    97    48    50    1
    98    52    53    1
    99    45    46    1
   100    46    47    2
   101    56    53    1
   102    53    54    1
   103   131   132    1
   104   131   130    1
   105   110   109    2
   106   107   108    1
   107   132   126    1
   108   138   137    1
   109   139   137    1
   110   130   127    1
   111   109   108    1
   112   109   118   am
   113    54    55    2
   114   126   127    1
   115   126   120   am
   116   137   134    1
   117   127   128    1
   118   119   120    1
   119   119   118    1
   120   119   122    1
   121   108   111    1
   122   120   121    2
   123   111   112    1
   124   116   115    1
   125   122   123    1
   126   112   113    1
   127   128   129    2
   128   134   135    1
   129   134   133    1
   130   113   114    1
   131   115   114    2
   132   115   117    1
   133   135   136    2
   134   123   124    2
   135   123   125   am
