@<TRIPOS>MOLECULE
tmp/2iyzA00.pdb
 139 131 0 0 0
SMALL
GASTEIGER

@<TRIPOS>ATOM
      1  N         -3.3620   37.8440   17.6710 N.3    10  PRO10      -0.2116
      2  CA        -3.9670   36.9310   18.5980 C.3    10  PRO10       0.1372
      3  C         -5.4300   37.3410   18.8830 C.2    10  PRO10       0.2244
      4  O         -5.7490   38.5090   18.9950 O.2    10  PRO10      -0.2868
      5  CB        -3.0670   37.0380   19.8350 C.3    10  PRO10       0.0268
      6  CG        -2.2830   38.2610   19.6490 C.3    10  PRO10       0.0207
      7  CD        -2.1050   38.4020   18.1910 C.3    10  PRO10       0.0892
      8  N         -7.8250   32.8050   14.2440 N.3    14  LYS14      -0.1245
      9  CA        -7.0370   31.8820   13.4240 C.3    14  LYS14       0.1561
     10  C         -7.3330   30.3880   13.6610 C.2    14  LYS14       0.2260
     11  O         -7.5180   29.6520   12.7000 O.2    14  LYS14      -0.2867
     12  CB        -5.5230   32.1450   13.5980 C.3    14  LYS14       0.0271
     13  CG        -5.0910   33.5240   13.0690 C.3    14  LYS14       0.0035
     14  CD        -3.6130   33.7100   13.1230 C.3    14  LYS14       0.0206
     15  CE        -3.0330   33.7260   14.5370 C.3    14  LYS14       0.1093
     16  NZ        -3.5720   34.8380   15.3950 N.3    14  LYS14      -0.1314
     17  N         -0.8520   24.7990   12.1930 N.3    31  ASP31      -0.1239
     18  CA        -0.5470   26.0540   12.8790 C.3    31  ASP31       0.1674
     19  C          0.9780   26.1200   13.0780 C.2    31  ASP31       0.2266
     20  O          1.5820   25.2000   13.6520 O.2    31  ASP31      -0.2867
     21  CB        -1.3000   26.0820   14.2170 C.3    31  ASP31       0.1410
     22  CG        -0.8670   27.2050   15.1470 C.2    31  ASP31       0.3668
     23  OD1        0.0290   27.9920   14.8670 O.co2  31  ASP31      -0.2456
     24  OD2       -1.4470   27.2870   16.2310 O.co2  31  ASP31      -0.2456
     25  N          2.9070   27.7550   14.9800 N.3    33  ASP33      -0.1239
     26  CA         3.3140   27.6630   16.3930 C.3    33  ASP33       0.1674
     27  C          3.4440   26.2110   16.8510 C.2    33  ASP33       0.2266
     28  O          4.3730   25.8740   17.5890 O.2    33  ASP33      -0.2867
     29  CB         2.3060   28.3580   17.2990 C.3    33  ASP33       0.1410
     30  CG         2.4770   29.8730   17.3370 C.2    33  ASP33       0.3668
     31  OD1        3.4720   30.4170   16.7830 O.co2  33  ASP33      -0.2456
     32  OD2        1.6030   30.5140   17.9570 O.co2  33  ASP33      -0.2456
     33  N          6.7410   27.6680   23.1740 N.3    44  ILE44      -0.1245
     34  CA         6.9040   29.0120   22.5930 C.3    44  ILE44       0.1561
     35  C          7.3520   29.9920   23.6880 C.2    44  ILE44       0.2260
     36  O          8.2310   30.8630   23.4720 O.2    44  ILE44      -0.2867
     37  CB         5.5500   29.5590   22.0120 C.3    44  ILE44       0.0252
     38  CG1        4.9360   28.6470   20.9190 C.3    44  ILE44       0.0019
     39  CG2        5.6940   31.0130   21.5170 C.3    44  ILE44       0.0019
     40  CD1        5.7330   28.5110   19.6740 C.3    44  ILE44       0.0001
     41  N         10.9100   32.3220   23.9910 N.3    48  PHE48      -0.1241
     42  CA        10.8950   33.7580   24.3080 C.3    48  PHE48       0.1605
     43  C         11.6490   34.0840   25.5860 C.2    48  PHE48       0.2264
     44  O         12.4560   35.0010   25.6050 O.2    48  PHE48      -0.2867
     45  CB         9.4690   34.2580   24.5050 C.3    48  PHE48       0.0534
     46  CG         8.8560   34.8050   23.2760 C.ar   48  PHE48      -0.0203
     47  CD1        8.2580   33.9540   22.3500 C.ar   48  PHE48      -0.0042
     48  CD2        8.8480   36.1830   23.0430 C.ar   48  PHE48      -0.0042
     49  CE1        7.6640   34.4670   21.1990 C.ar   48  PHE48      -0.0003
     50  CE2        8.2430   36.6840   21.8990 C.ar   48  PHE48      -0.0003
     51  CZ         7.6540   35.8150   20.9730 C.ar   48  PHE48      -0.0000
     52  N         13.4570   33.4560   18.2470 N.3    56  PHE56      -0.1227
     53  CA        12.1370   32.9220   17.9590 C.3    56  PHE56       0.1736
     54  C         11.6970   33.2230   16.5250 C.2    56  PHE56       0.2595
     55  O         11.1750   32.3380   15.8470 O.2    56  PHE56      -0.2718
     56  CB        11.0760   33.4520   18.9250 C.3    56  PHE56       0.0547
     57  CG         9.7240   32.9600   18.6020 C.ar   56  PHE56      -0.0202
     58  CD1        9.3890   31.6520   18.8690 C.ar   56  PHE56      -0.0042
     59  CD2        8.8170   33.7650   17.9180 C.ar   56  PHE56      -0.0042
     60  CE1        8.1450   31.1590   18.5440 C.ar   56  PHE56      -0.0003
     61  CE2        7.5580   33.2890   17.5710 C.ar   56  PHE56      -0.0003
     62  CZ         7.2190   31.9810   17.8860 C.ar   56  PHE56      -0.0000
     63  N         11.8850   34.4720   16.0890 N.am   57  ARG57      -0.1980
     64  CA        11.3780   34.9030   14.7870 C.3    57  ARG57       0.1597
     65  C         12.1200   34.1830   13.6590 C.2    57  ARG57       0.2287
     66  O         11.5130   33.7960   12.6640 O.2    57  ARG57      -0.2864
     67  CB        11.4720   36.4190   14.6160 C.3    57  ARG57       0.0334
     68  CG        10.6670   37.2390   15.5900 C.3    57  ARG57       0.0492
     69  CD         9.1740   36.9600   15.4500 C.3    57  ARG57       0.2205
     70  NE         8.3870   37.7490   16.3780 N.pl3  57  ARG57      -0.0865
     71  CZ         7.1470   37.4540   16.7590 C.cat  57  ARG57       0.5346
     72  NH1        6.5440   36.3970   16.2760 N.pl3  57  ARG57       0.1354
     73  NH2        6.5120   38.2140   17.6380 N.pl3  57  ARG57       0.1354
     74  N         10.7820   30.7480   13.5570 N.3    60  GLU60      -0.1245
     75  CA         9.4260   30.8760   13.0640 C.3    60  GLU60       0.1567
     76  C          9.4420   31.0540   11.5410 C.2    60  GLU60       0.2260
     77  O          8.6250   30.4960   10.8420 O.2    60  GLU60      -0.2867
     78  CB         8.7460   32.0820   13.7540 C.3    60  GLU60       0.0388
     79  CG         7.3270   32.3270   13.2620 C.3    60  GLU60       0.1160
     80  CD         6.6670   33.5440   13.8490 C.2    60  GLU60       0.3649
     81  OE1        7.2480   34.6300   13.8210 O.co2  60  GLU60      -0.2457
     82  OE2        5.5450   33.3990   14.3500 O.co2  60  GLU60      -0.2457
     83  N          1.4390   32.3340   13.2930 N.3    78  GLY78      -0.1210
     84  CA         1.4400   32.9850   14.5930 C.3    78  GLY78       0.1956
     85  C          1.3660   34.4820   14.3520 C.2    78  GLY78       0.2612
     86  O          1.8040   34.9450   13.3060 O.2    78  GLY78      -0.2717
     87  N          0.8160   35.2210   15.3100 N.am   79  GLY79      -0.1942
     88  CA         0.4520   36.6180   15.1100 C.3    79  GLY79       0.2014
     89  C          1.5490   37.5710   14.7140 C.2    79  GLY79       0.2639
     90  O          1.2740   38.5720   14.0570 O.2    79  GLY79      -0.2714
     91  N          2.7890   37.2890   15.1260 N.am   80  GLY80      -0.1954
     92  CA         3.9270   38.1840   14.8630 C.3    80  GLY80       0.1869
     93  C          4.7640   37.7800   13.6580 C.2    80  GLY80       0.2309
     94  O          5.7480   38.4360   13.3320 O.2    80  GLY80      -0.2863
     95  N          0.9410   34.1930   27.0060 N.3   116  ARG116     -0.1231
     96  CA         1.2290   35.0080   25.8410 C.3   116  ARG116      0.1679
     97  C          2.3810   35.9660   26.1670 C.2   116  ARG116      0.2434
     98  O          2.1800   36.9880   26.8110 O.2   116  ARG116     -0.2733
     99  CB        -0.0060   35.7850   25.3940 C.3   116  ARG116      0.0321
    100  CG        -1.2920   34.9850   25.3900 C.3   116  ARG116      0.0489
    101  CD        -2.4560   35.8990   25.0570 C.3   116  ARG116      0.2205
    102  NE        -3.7380   35.1960   25.0220 N.pl3 116  ARG116     -0.0865
    103  CZ        -4.2450   34.5670   23.9630 C.cat 116  ARG116      0.5346
    104  NH1       -3.5680   34.4780   22.8280 N.pl3 116  ARG116      0.1354
    105  NH2       -5.4430   33.9940   24.0590 N.pl3 116  ARG116      0.1354
    106  N          3.6010   35.6150   25.7260 N.am  117  PRO117     -0.2718
    107  CA         4.7740   36.4280   25.9490 C.3   117  PRO117      0.1535
    108  C          4.5830   37.9080   25.6730 C.2   117  PRO117      0.2598
    109  O          5.0550   38.7200   26.4480 O.2   117  PRO117     -0.2715
    110  CB         5.8000   35.8080   25.0070 C.3   117  PRO117      0.0310
    111  CG         5.3940   34.3690   24.9480 C.3   117  PRO117      0.0237
    112  CD         3.9240   34.3700   25.0110 C.3   117  PRO117      0.0939
    113  N          3.8750   38.2560   24.6060 N.am  118  LEU118     -0.1978
    114  CA         3.7350   39.6780   24.1620 C.3   118  LEU118      0.1596
    115  C          2.4220   40.3540   24.5660 C.2   118  LEU118      0.2287
    116  O          2.1030   41.4640   24.1080 O.2   118  LEU118     -0.2864
    117  CB         3.9250   39.7490   22.6450 C.3   118  LEU118      0.0297
    118  CG         5.2680   39.1570   22.1710 C.3   118  LEU118      0.0022
    119  CD1        5.5120   39.3140   20.6690 C.3   118  LEU118      0.0001
    120  CD2        6.4110   39.7660   22.9340 C.3   118  LEU118      0.0001
    121  N          0.2710   46.4940   19.3330 N.3   131  LEU131     -0.1245
    122  CA         0.5450   45.4160   18.3700 C.3   131  LEU131      0.1561
    123  C         -0.2910   45.6250   17.1130 C.2   131  LEU131      0.2260
    124  O          0.2180   45.4910   15.9930 O.2   131  LEU131     -0.2867
    125  CB         0.2760   44.0250   18.9630 C.3   131  LEU131      0.0270
    126  CG         1.1860   43.4350   20.0640 C.3   131  LEU131      0.0019
    127  CD1        0.6490   42.0580   20.4550 C.3   131  LEU131      0.0001
    128  CD2        2.6530   43.3440   19.6380 C.3   131  LEU131      0.0001
    129  N          1.2440   46.4380   13.4150 N.3   135  ARG135     -0.1245
    130  CA         1.1570   45.2970   12.4660 C.3   135  ARG135      0.1563
    131  C          0.1030   45.4270   11.3710 C.2   135  ARG135      0.2260
    132  O          0.1850   44.7070   10.3570 O.2   135  ARG135     -0.2867
    133  CB         0.8520   43.9980   13.2120 C.3   135  ARG135      0.0307
    134  CG         1.9550   43.5290   14.0810 C.3   135  ARG135      0.0489
    135  CD         1.5100   42.4040   14.9600 C.3   135  ARG135      0.2205
    136  NE         2.5970   42.0000   15.8310 N.pl3 135  ARG135     -0.0865
    137  CZ         2.5780   40.9700   16.6850 C.cat 135  ARG135      0.5346
    138  NH1        1.5240   40.1770   16.7970 N.pl3 135  ARG135      0.1354
    139  NH2        3.6580   40.7260   17.4100 N.pl3 135  ARG135      0.1354
@<TRIPOS>BOND
     1   132   131    2
     2    77    76    2
     3   131   130    1
     4    76    75    1
     5    17    18    1
     6   130   133    1
     7   130   129    1
     8    66    65    2
     9    11    10    2
    10    18    19    1
    11    18    21    1
    12    75    74    1
    13    75    78    1
    14    13    14    1
    15    13    12    1
    16    19    20    2
    17    14    15    1
    18   133   134    1
    19    79    78    1
    20    79    80    1
    21    83    84    1
    22    86    85    2
    23    94    93    2
    24     9    12    1
    25     9    10    1
    26     9     8    1
    27    93    92    1
    28    65    64    1
    29    81    80   ar
    30    80    82   ar
    31    90    89    2
    32   134   135    1
    33    21    22    1
    34    85    84    1
    35    85    87   am
    36    15    16    1
    37    67    64    1
    38    67    68    1
    39    89    88    1
    40    89    91   am
    41    64    63    1
    42    92    91    1
    43    23    22   ar
    44   135   136    1
    45    25    26    1
    46    88    87    1
    47    22    24   ar
    48    69    68    1
    49    69    70    1
    50   136   137    2
    51    55    54    2
    52   124   123    2
    53    63    54   am
    54    72    71    1
    55    70    71    2
    56    26    27    1
    57    26    29    1
    58    54    53    1
    59   137   138    1
    60   137   139    1
    61    71    73    1
    62    31    30   ar
    63    27    28    2
    64   123   122    1
    65    29    30    1
    66    30    32   ar
    67    61    62   ar
    68    61    59   ar
    69     1     7    1
    70     1     2    1
    71    62    60   ar
    72    59    57   ar
    73    53    52    1
    74    53    56    1
    75     7     6    1
    76   122   125    1
    77   122   121    1
    78    60    58   ar
    79     2     3    1
    80     2     5    1
    81    57    58   ar
    82    57    56    1
    83     3     4    2
    84   125   126    1
    85   128   126    1
    86     6     5    1
    87    40    38    1
    88   126   127    1
    89   119   118    1
    90    38    37    1
    91    51    49   ar
    92    51    50   ar
    93    49    47   ar
    94    39    37    1
    95    50    48   ar
    96    37    34    1
    97   118   117    1
    98   118   120    1
    99    47    46   ar
   100    34    33    1
   101    34    35    1
   102   117   114    1
   103   104   103    1
   104    48    46   ar
   105    46    45    1
   106    36    35    2
   107   103   105    1
   108   103   102    2
   109    41    42    1
   110   116   115    2
   111   114   115    1
   112   114   113    1
   113    42    45    1
   114    42    43    1
   115   113   108   am
   116   111   110    1
   117   111   112    1
   118   110   107    1
   119   112   106    1
   120   102   101    1
   121   101   100    1
   122   100    99    1
   123    99    96    1
   124    43    44    2
   125   108   107    1
   126   108   109    2
   127   106   107    1
   128   106    97   am
   129    96    97    1
   130    96    95    1
   131    97    98    2
