@<TRIPOS>MOLECULE
tmp/2iz0A00.pdb
 182 171 0 0 0
SMALL
GASTEIGER

@<TRIPOS>ATOM
      1  N          4.1160  -11.5030   58.3420 N.3    10  GLY10      -0.1210
      2  CA         2.9530  -11.3960   59.2250 C.3    10  GLY10       0.1956
      3  C          1.6480  -11.7110   58.5010 C.2    10  GLY10       0.2612
      4  O          1.1990  -10.9190   57.6800 O.2    10  GLY10      -0.2717
      5  N          1.0320  -12.8600   58.8050 N.am   11  MET11      -0.1965
      6  CA        -0.1830  -13.3040   58.1010 C.3    11  MET11       0.1736
      7  C         -1.4130  -13.3450   59.0030 C.2    11  MET11       0.2616
      8  O         -2.3580  -14.0880   58.7480 O.2    11  MET11      -0.2715
      9  CB         0.0450  -14.6680   57.4450 C.3    11  MET11       0.0427
     10  CG         0.9570  -14.6270   56.2180 C.3    11  MET11       0.0599
     11  SD         0.2310  -13.7420   54.8080 S.3    11  MET11      -0.1393
     12  CE         1.1180  -12.1920   54.8410 C.3    11  MET11       0.0692
     13  N         -1.4020  -12.5380   60.0550 N.am   12  ALA12      -0.1963
     14  CA        -2.6160  -12.2340   60.7840 C.3    12  ALA12       0.1728
     15  C         -3.4320  -11.2530   59.9340 C.2    12  ALA12       0.2616
     16  O         -3.0670  -10.9420   58.8010 O.2    12  ALA12      -0.2715
     17  CB        -2.2840  -11.6340   62.1550 C.3    12  ALA12       0.0334
     18  N         -4.5290  -10.7530   60.4870 N.am   13  VAL13      -0.1963
     19  CA        -5.4920   -9.9900   59.7080 C.3    13  VAL13       0.1727
     20  C         -4.8580   -8.9170   58.7970 C.2    13  VAL13       0.2616
     21  O         -5.1880   -8.8500   57.6180 O.2    13  VAL13      -0.2715
     22  CB        -6.6110   -9.3670   60.6220 C.3    13  VAL13       0.0290
     23  CG1       -6.0690   -8.2510   61.5190 C.3    13  VAL13       0.0023
     24  CG2       -7.7480   -8.8550   59.7770 C.3    13  VAL13       0.0023
     25  N         -3.9580   -8.0940   59.3290 N.am   14  MET14      -0.1963
     26  CA        -3.4570   -6.9340   58.5880 C.3    14  MET14       0.1736
     27  C         -2.4980   -7.3220   57.4610 C.2    14  MET14       0.2617
     28  O         -2.5800   -6.7900   56.3500 O.2    14  MET14      -0.2715
     29  CB        -2.7530   -5.9340   59.5220 C.3    14  MET14       0.0427
     30  CG        -3.6660   -5.1480   60.4620 C.3    14  MET14       0.0599
     31  SD        -5.0090   -4.2280   59.6550 S.3    14  MET14      -0.1393
     32  CE        -4.2100   -2.7100   59.1290 C.3    14  MET14       0.0692
     33  N         -1.5790   -8.2290   57.7480 N.am   15  GLY15      -0.1955
     34  CA        -0.5930   -8.6310   56.7660 C.3    15  GLY15       0.1869
     35  C         -1.2070   -9.4120   55.6250 C.2    15  GLY15       0.2309
     36  O         -0.8600   -9.1940   54.4650 O.2    15  GLY15      -0.2863
     37  N          4.9370  -16.0940   57.5980 N.3    33  ASN33      -0.1225
     38  CA         4.4690  -15.9470   58.9640 C.3    33  ASN33       0.1785
     39  C          5.2720  -16.9130   59.8230 C.2    33  ASN33       0.2597
     40  O          5.7430  -17.9410   59.3440 O.2    33  ASN33      -0.2718
     41  CB         2.9790  -16.2710   59.0550 C.3    33  ASN33       0.1169
     42  CG         2.3590  -15.8400   60.3710 C.2    33  ASN33       0.2627
     43  OD1        2.2360  -14.6470   60.6450 O.2    33  ASN33      -0.2716
     44  ND2        1.9480  -16.8090   61.1830 N.am   33  ASN33      -0.0877
     45  N          5.4380  -16.5800   61.0900 N.am   34  ARG34      -0.1966
     46  CA         6.2630  -17.3990   61.9700 C.3    34  ARG34       0.1729
     47  C          5.5890  -18.7710   62.2100 C.2    34  ARG34       0.2616
     48  O          6.2230  -19.8050   62.0020 O.2    34  ARG34      -0.2715
     49  CB         6.6380  -16.5950   63.2280 C.3    34  ARG34       0.0348
     50  CG         6.8790  -17.3430   64.5290 C.3    34  ARG34       0.0492
     51  CD         5.7620  -16.9950   65.4960 C.3    34  ARG34       0.2205
     52  NE         6.2090  -16.9240   66.8730 N.pl3  34  ARG34      -0.0865
     53  CZ         5.4690  -16.4460   67.8670 C.cat  34  ARG34       0.5346
     54  NH1        4.2410  -15.9880   67.6390 N.pl3  34  ARG34       0.1354
     55  NH2        5.9630  -16.4230   69.1010 N.pl3  34  ARG34       0.1354
     56  N          4.3040  -18.7830   62.5690 N.am   35  THR35      -0.1951
     57  CA         3.5170  -20.0220   62.4950 C.3    35  THR35       0.1897
     58  C          3.1880  -20.3010   61.0290 C.2    35  THR35       0.2313
     59  O          2.4360  -19.5550   60.3960 O.2    35  THR35      -0.2863
     60  CB         2.1940  -19.9330   63.2800 C.3    35  THR35       0.1794
     61  OG1        2.4560  -19.5370   64.6300 O.3    35  THR35      -0.2208
     62  CG2        1.4820  -21.2770   63.2850 C.3    35  THR35       0.0378
     63  N         -0.6040  -20.6350   59.2650 N.3    38  LYS38      -0.1245
     64  CA        -1.3470  -19.4410   58.8600 C.3    38  LYS38       0.1561
     65  C         -1.0600  -19.1040   57.3930 C.2    38  LYS38       0.2260
     66  O         -1.9750  -18.7890   56.6410 O.2    38  LYS38      -0.2867
     67  CB        -1.0050  -18.2510   59.7610 C.3    38  LYS38       0.0271
     68  CG        -1.8670  -18.1300   61.0130 C.3    38  LYS38       0.0035
     69  CD        -1.7690  -19.3310   61.9520 C.3    38  LYS38       0.0206
     70  CE        -2.8950  -20.3360   61.7280 C.3    38  LYS38       0.1093
     71  NZ        -2.9250  -21.3790   62.7900 N.3    38  LYS38      -0.1314
     72  N          4.0270   -6.6430   59.2180 N.3    73  MET73      -0.1230
     73  CA         2.8630   -6.3510   60.0600 C.3    73  MET73       0.1702
     74  C          2.8360   -7.3830   61.1770 C.2    73  MET73       0.2592
     75  O          2.0270   -8.3230   61.1760 O.2    73  MET73      -0.2718
     76  CB         1.5690   -6.3870   59.2620 C.3    73  MET73       0.0401
     77  CG         1.5520   -5.4700   58.0630 C.3    73  MET73       0.0596
     78  SD         1.6290   -3.7450   58.5140 S.3    73  MET73      -0.1393
     79  CE        -0.0650   -3.4350   58.9970 C.3    73  MET73       0.0692
     80  N          3.7480   -7.1870   62.1210 N.am   74  VAL74      -0.1966
     81  CA         3.9740   -8.0730   63.2590 C.3    74  VAL74       0.1727
     82  C          3.5540   -7.3570   64.5440 C.2    74  VAL74       0.2616
     83  O          3.6050   -6.1330   64.6080 O.2    74  VAL74      -0.2715
     84  CB         5.4870   -8.4140   63.3660 C.3    74  VAL74       0.0290
     85  CG1        5.7820   -9.3210   64.5650 C.3    74  VAL74       0.0023
     86  CG2        5.9920   -9.0400   62.0650 C.3    74  VAL74       0.0023
     87  N          3.1840   -8.1260   65.5620 N.am   75  GLN75      -0.1963
     88  CA         2.8910   -7.5910   66.8850 C.3    75  GLN75       0.1733
     89  C          3.9950   -6.6210   67.3260 C.2    75  GLN75       0.2616
     90  O          5.2050   -6.8920   67.1710 O.2    75  GLN75      -0.2715
     91  CB         2.7650   -8.7350   67.8870 C.3    75  GLN75       0.0408
     92  CG         2.4760   -8.3130   69.3100 C.3    75  GLN75       0.0908
     93  CD         2.6330   -9.4660   70.2770 C.2    75  GLN75       0.2608
     94  OE1        1.6500  -10.0620   70.6980 O.2    75  GLN75      -0.2717
     95  NE2        3.8730   -9.8020   70.6110 N.am   75  GLN75      -0.0878
     96  N          3.5730   -5.4890   67.8740 N.am   76  ALA76      -0.1977
     97  CA         4.5040   -4.4250   68.1940 C.3    76  ALA76       0.1597
     98  C          5.3890   -4.8630   69.3340 C.2    76  ALA76       0.2287
     99  O          5.0230   -5.7510   70.1050 O.2    76  ALA76      -0.2864
    100  CB         3.7600   -3.1430   68.5470 C.3    76  ALA76       0.0319
    101  N          8.5930   -6.5110   71.2170 N.3    78  ALA78      -0.1231
    102  CA         9.6460   -7.5200   71.2030 C.3    78  ALA78       0.1694
    103  C          9.5930   -8.3940   69.9540 C.2    78  ALA78       0.2591
    104  O         10.6330   -8.7230   69.3850 O.2    78  ALA78      -0.2718
    105  CB         9.5680   -8.3770   72.4510 C.3    78  ALA78       0.0304
    106  N          8.3830   -8.7610   69.5380 N.am   79  ALA79      -0.1980
    107  CA         8.1860   -9.5970   68.3530 C.3    79  ALA79       0.1597
    108  C          8.7470   -8.9360   67.0900 C.2    79  ALA79       0.2287
    109  O          9.4580   -9.5630   66.3050 O.2    79  ALA79      -0.2864
    110  CB         6.7210   -9.8870   68.1760 C.3    79  ALA79       0.0319
    111  N         12.6800   -8.7140   67.2560 N.3    82  ALA82      -0.1231
    112  CA        13.2620  -10.0200   66.9180 C.3    82  ALA82       0.1694
    113  C         13.1170  -10.3760   65.4370 C.2    82  ALA82       0.2592
    114  O         14.0290  -10.9420   64.8360 O.2    82  ALA82      -0.2718
    115  CB        12.6270  -11.1050   67.7660 C.3    82  ALA82       0.0304
    116  N         11.9650  -10.0550   64.8570 N.am   83  THR83      -0.1953
    117  CA        11.7310  -10.3500   63.4520 C.3    83  THR83       0.1897
    118  C         12.7530   -9.5990   62.6080 C.2    83  THR83       0.2313
    119  O         13.3800  -10.1830   61.7320 O.2    83  THR83      -0.2863
    120  CB        10.3050   -9.9600   63.0010 C.3    83  THR83       0.1794
    121  OG1        9.3310  -10.7350   63.7120 O.3    83  THR83      -0.2208
    122  CG2       10.1440  -10.2050   61.5120 C.3    83  THR83       0.0378
    123  N          5.3420   -1.5770   59.3060 N.3   100  GLY100     -0.1210
    124  CA         3.9990   -0.9980   59.2310 C.3   100  GLY100      0.1956
    125  C          3.1060   -1.2850   60.4290 C.2   100  GLY100      0.2612
    126  O          1.9260   -0.9610   60.4070 O.2   100  GLY100     -0.2717
    127  N          3.6590   -1.8940   61.4770 N.am  101  GLY101     -0.1942
    128  CA         2.9020   -2.1450   62.7120 C.3   101  GLY101      0.2014
    129  C          2.7720   -0.8700   63.5240 C.2   101  GLY101      0.2638
    130  O          3.3500    0.1600   63.1590 O.2   101  GLY101     -0.2714
    131  N          2.0270   -0.9340   64.6300 N.am  102  ASN102     -0.1972
    132  CA         1.8810    0.2050   65.5420 C.3   102  ASN102      0.1688
    133  C          3.0300    0.2190   66.5370 C.2   102  ASN102      0.2292
    134  O          2.8640   -0.0670   67.7230 O.2   102  ASN102     -0.2864
    135  CB         0.5300    0.1730   66.2490 C.3   102  ASN102      0.1181
    136  CG        -0.6310    0.4690   65.3110 C.2   102  ASN102      0.2629
    137  OD1       -0.4450    1.0170   64.2140 O.2   102  ASN102     -0.2716
    138  ND2       -1.8470    0.1200   65.7470 N.am  102  ASN102     -0.0877
    139  N         -0.3890    2.4990   59.5630 N.3   127  VAL127     -0.1231
    140  CA        -1.4000    2.0040   58.6280 C.3   127  VAL127      0.1692
    141  C         -2.7690    2.0720   59.2910 C.2   127  VAL127      0.2592
    142  O         -2.9430    1.5580   60.3800 O.2   127  VAL127     -0.2718
    143  CB        -1.1030    0.5420   58.1890 C.3   127  VAL127      0.0266
    144  CG1       -2.0810    0.0980   57.1050 C.3   127  VAL127      0.0020
    145  CG2        0.3120    0.4130   57.6820 C.3   127  VAL127      0.0020
    146  N         -3.7260    2.7150   58.6270 N.am  128  SER128     -0.1952
    147  CA        -5.0790    2.9060   59.1640 C.3   128  SER128      0.1924
    148  C         -6.1030    2.1420   58.3360 C.2   128  SER128      0.2314
    149  O         -5.7870    1.6530   57.2530 O.2   128  SER128     -0.2863
    150  CB        -5.4460    4.3950   59.1630 C.3   128  SER128      0.2116
    151  OG        -6.6220    4.6640   59.9210 O.3   128  SER128     -0.2180
    152  N         -8.1120   -0.5240   59.4240 N.3   130  GLY130     -0.1210
    153  CA        -8.4320   -1.8660   59.8900 C.3   130  GLY130      0.1956
    154  C         -8.2760   -2.9170   58.8130 C.2   130  GLY130      0.2611
    155  O         -7.5450   -2.7110   57.8470 O.2   130  GLY130     -0.2717
    156  N         -8.9660   -4.0450   58.9660 N.am  131  GLU131     -0.1979
    157  CA        -8.7860   -5.1460   58.0230 C.3   131  GLU131      0.1602
    158  C         -9.2210   -4.8000   56.5870 C.2   131  GLU131      0.2287
    159  O         -8.4910   -5.0910   55.6340 O.2   131  GLU131     -0.2864
    160  CB        -9.4320   -6.4460   58.5320 C.3   131  GLU131      0.0415
    161  CG       -10.9310   -6.5850   58.4350 C.3   131  GLU131      0.1163
    162  CD       -11.3740   -8.0190   58.7280 C.2   131  GLU131      0.3649
    163  OE1      -11.5980   -8.3470   59.9140 O.co2 131  GLU131     -0.2457
    164  OE2      -11.4950   -8.8200   57.7670 O.co2 131  GLU131     -0.2457
    165  N          0.7810    8.2480   63.3830 N.3   184  LYS184     -0.1245
    166  CA        -0.1680    7.1590   63.5690 C.3   184  LYS184      0.1561
    167  C         -0.6160    7.0410   65.0260 C.2   184  LYS184      0.2260
    168  O         -1.7720    6.7250   65.3020 O.2   184  LYS184     -0.2867
    169  CB         0.4340    5.8380   63.1010 C.3   184  LYS184      0.0271
    170  CG        -0.4650    4.6140   63.3090 C.3   184  LYS184      0.0035
    171  CD        -1.7730    4.6800   62.5430 C.3   184  LYS184      0.0206
    172  CE        -2.7680    3.6570   63.0680 C.3   184  LYS184      0.1093
    173  NZ        -2.3430    2.2410   62.8700 N.3   184  LYS184     -0.1314
    174  N         -4.1140   -1.6060   73.1590 N.3   262  LYS262     -0.1245
    175  CA        -2.8340   -2.1650   72.7850 C.3   262  LYS262      0.1561
    176  C         -1.7300   -1.1260   72.7130 C.2   262  LYS262      0.2260
    177  O         -0.6490   -1.4000   72.2190 O.2   262  LYS262     -0.2867
    178  CB        -2.9460   -2.9330   71.4730 C.3   262  LYS262      0.0271
    179  CG        -3.9740   -4.0190   71.5030 C.3   262  LYS262      0.0035
    180  CD        -3.7850   -5.0020   70.4130 C.3   262  LYS262      0.0206
    181  CE        -4.6340   -6.2060   70.6470 C.3   262  LYS262      0.1093
    182  NZ        -5.2460   -6.7600   69.4420 N.3   262  LYS262     -0.1314
@<TRIPOS>BOND
     1    36    35    2
     2    11    12    1
     3    11    10    1
     4    35    34    1
     5   159   158    2
     6    10     9    1
     7    28    27    2
     8   158   157    1
     9    66    65    2
    10    34    33    1
    11   144   143    1
    12   149   148    2
    13    65    64    1
    14     9     6    1
    15    27    33   am
    16    27    26    1
    17    37    38    1
    18    21    20    2
    19     4     3    2
    20   145   143    1
    21   164   162   ar
    22   155   154    2
    23   157   160    1
    24   157   156    1
    25    77    78    1
    26    77    76    1
    27     6     5    1
    28     6     7    1
    29   143   140    1
    30   148   147    1
    31     1     2    1
    32   161   160    1
    33   161   162    1
    34     3     5   am
    35     3     2    1
    36    78    79    1
    37    26    25    1
    38    26    29    1
    39   146   147    1
    40   146   141   am
    41   140   141    1
    42   140   139    1
    43   162   163   ar
    44     8     7    2
    45    20    25   am
    46    20    19    1
    47    16    15    2
    48   154   156   am
    49   154   153    1
    50    64    63    1
    51    64    67    1
    52    38    41    1
    53    38    39    1
    54     7    13   am
    55    41    42    1
    56    32    31    1
    57   150   147    1
    58   150   151    1
    59    72    73    1
    60   124   123    1
    61   124   125    1
    62    76    73    1
    63   141   142    2
    64    40    39    2
    65   152   153    1
    66    29    30    1
    67    31    30    1
    68    19    18    1
    69    19    22    1
    70    67    68    1
    71    24    22    1
    72    39    45   am
    73    15    18   am
    74    15    14    1
    75    13    14    1
    76    73    74    1
    77    42    43    2
    78    42    44   am
    79    59    58    2
    80   126   125    2
    81   125   127   am
    82    22    23    1
    83    14    17    1
    84    68    69    1
    85    58    57    1
    86    45    46    1
    87    75    74    2
    88    74    80   am
    89   127   128    1
    90   122   120    1
    91    70    69    1
    92    70    71    1
    93   119   118    2
    94    46    47    1
    95    46    49    1
    96    48    47    2
    97    86    84    1
    98    80    81    1
    99    47    56   am
   100    57    56    1
   101    57    60    1
   102   171   172    1
   103   171   170    1
   104   118   117    1
   105   128   129    1
   106   173   172    1
   107   120   117    1
   108   120   121    1
   109   169   170    1
   110   169   166    1
   111   130   129    2
   112    49    50    1
   113    81    84    1
   114    81    82    1
   115    60    62    1
   116    60    61    1
   117    84    85    1
   118   165   166    1
   119   117   116    1
   120   129   131   am
   121   166   167    1
   122   137   136    2
   123    50    51    1
   124    82    83    2
   125    82    87   am
   126   131   132    1
   127   114   113    2
   128   116   113   am
   129   167   168    2
   130   136   138   am
   131   136   135    1
   132   113   112    1
   133    51    52    1
   134   132   135    1
   135   132   133    1
   136    87    88    1
   137   109   108    2
   138   133   134    2
   139    52    53    2
   140    88    89    1
   141    88    91    1
   142   112   111    1
   143   112   115    1
   144   108   107    1
   145    90    89    2
   146    89    96   am
   147    54    53    1
   148    53    55    1
   149    96    97    1
   150    91    92    1
   151   110   107    1
   152    97   100    1
   153    97    98    1
   154   107   106    1
   155    92    93    1
   156    98    99    2
   157   104   103    2
   158   182   181    1
   159   106   103   am
   160   103   102    1
   161    93    95   am
   162    93    94    2
   163   180   181    1
   164   180   179    1
   165   102   101    1
   166   102   105    1
   167   178   179    1
   168   178   175    1
   169   177   176    2
   170   176   175    1
   171   175   174    1
