@<TRIPOS>MOLECULE
tmp/2iz1A01.pdb
 136 126 0 0 0
SMALL
GASTEIGER

@<TRIPOS>ATOM
      1  N         -4.2110   -7.9890   59.2770 N.3    14  MET14      -0.1245
      2  CA        -3.6690   -6.8300   58.5860 C.3    14  MET14       0.1570
      3  C         -2.7260   -7.2300   57.4520 C.2    14  MET14       0.2261
      4  O         -2.8610   -6.7400   56.3290 O.2    14  MET14      -0.2867
      5  CB        -2.9640   -5.8980   59.5710 C.3    14  MET14       0.0387
      6  CG        -3.8790   -5.2280   60.5900 C.3    14  MET14       0.0595
      7  SD        -5.1880   -4.2530   59.8260 S.3    14  MET14      -0.1393
      8  CE        -4.2730   -2.7760   59.3650 C.3    14  MET14       0.0692
      9  N          2.0270   -0.8740   64.5610 N.3   102  ASN102     -0.1240
     10  CA         1.8660    0.2430   65.5080 C.3   102  ASN102      0.1653
     11  C          3.0110    0.2240   66.4990 C.2   102  ASN102      0.2266
     12  O          2.8300   -0.0350   67.6970 O.2   102  ASN102     -0.2867
     13  CB         0.5110    0.2050   66.2320 C.3   102  ASN102      0.1155
     14  CG        -0.6650    0.5370   65.3070 C.2   102  ASN102      0.2627
     15  OD1       -0.5010    1.1980   64.2720 O.2   102  ASN102     -0.2716
     16  ND2       -1.8600    0.0740   65.6790 N.am  102  ASN102     -0.0877
     17  N         -0.3340    2.5280   59.4000 N.3   127  VAL127     -0.1231
     18  CA        -1.3260    2.0130   58.4720 C.3   127  VAL127      0.1692
     19  C         -2.6690    2.0630   59.2000 C.2   127  VAL127      0.2592
     20  O         -2.8030    1.5410   60.3040 O.2   127  VAL127     -0.2718
     21  CB        -0.9960    0.5490   57.9810 C.3   127  VAL127      0.0266
     22  CG1       -2.0390    0.0510   56.9910 C.3   127  VAL127      0.0020
     23  CG2        0.3740    0.4690   57.3290 C.3   127  VAL127      0.0020
     24  N         -3.6480    2.7190   58.5830 N.am  128  SER128     -0.1952
     25  CA        -4.9750    2.8660   59.1720 C.3   128  SER128      0.1924
     26  C         -6.0370    2.2250   58.2630 C.2   128  SER128      0.2314
     27  O         -5.7250    1.8080   57.1580 O.2   128  SER128     -0.2863
     28  CB        -5.2780    4.3500   59.4160 C.3   128  SER128      0.2116
     29  OG        -6.5630    4.5240   59.9910 O.3   128  SER128     -0.2180
     30  N         -8.2210   -0.3770   59.2890 N.3   130  GLY130     -0.1225
     31  CA        -8.6250   -1.7020   59.7620 C.3   130  GLY130      0.1811
     32  C         -8.5010   -2.7840   58.6990 C.2   130  GLY130      0.2280
     33  O         -7.8420   -2.5880   57.6760 O.2   130  GLY130     -0.2866
     34  N          0.7160    8.1740   63.2720 N.3   184  LYS184     -0.1245
     35  CA        -0.2250    7.0680   63.5040 C.3   184  LYS184      0.1561
     36  C         -0.6710    6.9610   64.9670 C.2   184  LYS184      0.2260
     37  O         -1.8330    6.6750   65.2450 O.2   184  LYS184     -0.2867
     38  CB         0.3600    5.7310   63.0430 C.3   184  LYS184      0.0271
     39  CG        -0.5920    4.5280   63.2230 C.3   184  LYS184      0.0035
     40  CD        -1.8650    4.6530   62.3830 C.3   184  LYS184      0.0206
     41  CE        -3.0030    3.7700   62.9160 C.3   184  LYS184      0.1093
     42  NZ        -2.6980    2.3090   62.9190 N.3   184  LYS184     -0.1314
     43  N         -3.1100    9.7300   65.6060 N.3   187  HIS187     -0.1226
     44  CA        -4.3060    9.2660   64.9080 C.3   187  HIS187      0.1752
     45  C         -5.1190    8.3430   65.8380 C.2   187  HIS187      0.2596
     46  O         -6.3290    8.5250   66.0280 O.2   187  HIS187     -0.2718
     47  CB        -3.8840    8.5740   63.5870 C.3   187  HIS187      0.0759
     48  CG        -4.9330    7.7020   62.9700 C.ar  187  HIS187      0.0818
     49  ND1       -5.3780    6.5380   63.5580 N.ar  187  HIS187     -0.2268
     50  CD2       -5.6010    7.8090   61.7970 C.ar  187  HIS187      0.1154
     51  CE1       -6.3010    5.9850   62.7910 C.ar  187  HIS187      0.1986
     52  NE2       -6.4540    6.7380   61.7140 N.ar  187  HIS187     -0.2212
     53  N         -4.4530    7.3680   66.4380 N.am  188  ASN188     -0.1974
     54  CA        -5.1290    6.4760   67.3650 C.3   188  ASN188      0.1688
     55  C         -5.6120    7.1500   68.6570 C.2   188  ASN188      0.2292
     56  O         -6.6510    6.7660   69.2040 O.2   188  ASN188     -0.2864
     57  CB        -4.2660    5.2540   67.6570 C.3   188  ASN188      0.1181
     58  CG        -4.2980    4.2520   66.5260 C.2   188  ASN188      0.2629
     59  OD1       -4.6740    4.5930   65.4150 O.2   188  ASN188     -0.2716
     60  ND2       -3.9060    3.0140   66.8010 N.am  188  ASN188     -0.0877
     61  N         -8.7980    8.8340   67.6770 N.3   191  GLU191     -0.1231
     62  CA        -9.7000    7.6940   67.5850 C.3   191  GLU191      0.1699
     63  C        -10.3000    7.2540   68.9350 C.2   191  GLU191      0.2592
     64  O        -11.5240    7.1240   69.0530 O.2   191  GLU191     -0.2718
     65  CB        -8.9480    6.5420   66.9320 C.3   191  GLU191      0.0402
     66  CG        -9.7150    5.2540   66.7760 C.3   191  GLU191      0.1161
     67  CD        -8.7990    4.1540   66.3150 C.2   191  GLU191      0.3649
     68  OE1       -8.3240    4.2250   65.1600 O.co2 191  GLU191     -0.2457
     69  OE2       -8.5180    3.2400   67.1150 O.co2 191  GLU191     -0.2457
     70  N         -9.4460    7.0100   69.9310 N.am  192  TYR192     -0.1976
     71  CA        -9.8970    6.7140   71.2940 C.3   192  TYR192      0.1639
     72  C        -10.8610    7.7780   71.7810 C.2   192  TYR192      0.2290
     73  O        -11.8770    7.4480   72.3760 O.2   192  TYR192     -0.2864
     74  CB        -8.7280    6.6830   72.2830 C.3   192  TYR192      0.0560
     75  CG        -7.8850    5.4260   72.3480 C.ar  192  TYR192     -0.0198
     76  CD1       -7.4760    4.7450   71.1910 C.ar  192  TYR192     -0.0009
     77  CD2       -7.4360    4.9550   73.5830 C.ar  192  TYR192     -0.0009
     78  CE1       -6.6740    3.6000   71.2700 C.ar  192  TYR192      0.0417
     79  CE2       -6.6310    3.8260   73.6750 C.ar  192  TYR192      0.0417
     80  CZ        -6.2460    3.1560   72.5230 C.ar  192  TYR192      0.1957
     81  OH        -5.4350    2.0420   72.6550 O.3   192  TYR192     -0.2866
     82  N        -14.2920    7.6240   69.9250 N.3   195  MET195     -0.1245
     83  CA       -14.9890    6.3950   70.3390 C.3   195  MET195      0.1570
     84  C        -15.6310    6.5560   71.7310 C.2   195  MET195      0.2261
     85  O        -16.7610    6.1090   71.9510 O.2   195  MET195     -0.2867
     86  CB       -14.0410    5.1880   70.3050 C.3   195  MET195      0.0387
     87  CG       -13.6350    4.7310   68.8950 C.3   195  MET195      0.0595
     88  SD       -12.2930    3.5050   68.8710 S.3   195  MET195     -0.1393
     89  CE       -13.1100    2.0270   69.4990 C.3   195  MET195      0.0692
     90  N        -10.4990   -3.1700   75.7750 N.3   260  GLY260     -0.1210
     91  CA        -9.0960   -3.4980   75.6020 C.3   260  GLY260      0.1956
     92  C         -8.3440   -2.3430   74.9680 C.2   260  GLY260      0.2612
     93  O         -8.9400   -1.3920   74.4390 O.2   260  GLY260     -0.2717
     94  N         -7.0240   -2.4280   75.0230 N.am  261  ASN261     -0.1960
     95  CA        -6.1730   -1.4520   74.3860 C.3   261  ASN261      0.1819
     96  C         -4.8190   -2.0790   74.0840 C.2   261  ASN261      0.2621
     97  O         -4.3450   -2.9410   74.8280 O.2   261  ASN261     -0.2715
     98  CB        -6.0380   -0.1870   75.2510 C.3   261  ASN261      0.1195
     99  CG        -4.9820   -0.3200   76.3150 C.2   261  ASN261      0.2630
    100  OD1       -3.7910   -0.1110   76.0530 O.2   261  ASN261     -0.2716
    101  ND2       -5.4030   -0.6770   77.5290 N.am  261  ASN261     -0.0877
    102  N         -4.2010   -1.6440   72.9880 N.am  262  LYS262     -0.1977
    103  CA        -2.9080   -2.2000   72.5960 C.3   262  LYS262      0.1596
    104  C         -1.7810   -1.1500   72.6300 C.2   262  LYS262      0.2287
    105  O         -0.7440   -1.2980   71.9720 O.2   262  LYS262     -0.2864
    106  CB        -3.0390   -2.9640   71.2550 C.3   262  LYS262      0.0298
    107  CG        -3.7850   -4.2830   71.4580 C.3   262  LYS262      0.0038
    108  CD        -4.1160   -5.0780   70.2050 C.3   262  LYS262      0.0206
    109  CE        -4.8870   -6.3450   70.6460 C.3   262  LYS262      0.1093
    110  NZ        -5.3550   -7.2730   69.5640 N.3   262  LYS262     -0.1314
    111  N         -1.4320    2.3730   71.9500 N.3   264  THR264     -0.1218
    112  CA        -1.2650    3.6280   71.1960 C.3   264  THR264      0.1862
    113  C         -1.9110    4.8600   71.8380 C.2   264  THR264      0.2287
    114  O         -1.3200    5.9430   71.8370 O.2   264  THR264     -0.2866
    115  CB        -1.7180    3.5100   69.7180 C.3   264  THR264      0.1770
    116  OG1       -3.0250    2.9140   69.6510 O.3   264  THR264     -0.2211
    117  CG2       -0.7250    2.6830   68.9160 C.3   264  THR264      0.0375
    118  N        -11.3790    3.6670   79.3290 N.3   289  ARG289     -0.1245
    119  CA       -11.0650    2.2640   79.0540 C.3   289  ARG289      0.1563
    120  C        -10.5490    1.5530   80.3040 C.2   289  ARG289      0.2260
    121  O        -11.0160    0.4540   80.6230 O.2   289  ARG289     -0.2867
    122  CB       -10.0620    2.1090   77.9010 C.3   289  ARG289      0.0307
    123  CG       -10.6250    2.4920   76.5410 C.3   289  ARG289      0.0489
    124  CD        -9.8820    1.8320   75.3800 C.3   289  ARG289      0.2205
    125  NE       -10.3140    2.4050   74.1110 N.pl3 289  ARG289     -0.0865
    126  CZ        -9.8850    2.0280   72.9110 C.cat 289  ARG289      0.5346
    127  NH1       -8.9980    1.0460   72.7820 N.pl3 289  ARG289      0.1354
    128  NH2      -10.3540    2.6420   71.8340 N.pl3 289  ARG289      0.1354
    129  N         -9.7260    5.1250   59.8980 N.3   367  ILE367     -0.1245
    130  CA       -10.6760    5.0300   61.0110 C.3   367  ILE367      0.1561
    131  C        -11.1670    6.4010   61.4990 C.2   367  ILE367      0.2260
    132  O        -12.3110    6.5300   61.9180 O.2   367  ILE367     -0.2867
    133  CB       -10.1020    4.2090   62.2100 C.3   367  ILE367      0.0252
    134  CG1       -9.5690    2.8430   61.7490 C.3   367  ILE367      0.0019
    135  CG2      -11.1360    4.0670   63.3410 C.3   367  ILE367      0.0019
    136  CD1      -10.5740    1.9510   61.0440 C.3   367  ILE367      0.0001
@<TRIPOS>BOND
     1     4     3    2
     2    22    21    1
     3    27    26    2
     4    23    21    1
     5     3     2    1
     6    33    32    2
     7    21    18    1
     8    26    25    1
     9    18    19    1
    10    18    17    1
    11    24    25    1
    12    24    19   am
    13     2     1    1
    14     2     5    1
    15    32    31    1
    16    25    28    1
    17    19    20    2
    18    30    31    1
    19     8     7    1
    20    28    29    1
    21     5     6    1
    22     7     6    1
    23   129   130    1
    24   130   131    1
    25   130   133    1
    26   136   134    1
    27   131   132    2
    28    52    50   ar
    29    52    51   ar
    30   134   133    1
    31    50    48   ar
    32   133   135    1
    33    40    41    1
    34    40    39    1
    35    51    49   ar
    36    41    42    1
    37    48    49   ar
    38    48    47    1
    39    38    39    1
    40    38    35    1
    41    34    35    1
    42    35    36    1
    43    47    44    1
    44    15    14    2
    45     9    10    1
    46    44    43    1
    47    44    45    1
    48    36    37    2
    49    68    67   ar
    50    14    16   am
    51    14    13    1
    52    59    58    2
    53    10    13    1
    54    10    11    1
    55    45    46    2
    56    45    53   am
    57    67    66    1
    58    67    69   ar
    59    53    54    1
    60    11    12    2
    61    58    60   am
    62    58    57    1
    63    66    65    1
    64    65    62    1
    65    54    57    1
    66    54    55    1
    67    62    61    1
    68    62    63    1
    69    55    56    2
    70    88    87    1
    71    88    89    1
    72    87    86    1
    73   117   115    1
    74    63    64    2
    75    63    70   am
    76   110   109    1
    77   116   115    1
    78   115   112    1
    79    82    83    1
    80    70    71    1
    81   108   109    1
    82   108   107    1
    83    86    83    1
    84    83    84    1
    85    76    78   ar
    86    76    75   ar
    87   112   113    1
    88   112   111    1
    89   106   107    1
    90   106   103    1
    91    78    80   ar
    92    71    72    1
    93    71    74    1
    94    84    85    2
    95    72    73    2
    96   128   126    1
    97   114   113    2
    98   105   104    2
    99    74    75    1
   100    75    77   ar
   101    80    81    1
   102    80    79   ar
   103   103   104    1
   104   103   102    1
   105   127   126    1
   106   126   125    2
   107   102    96   am
   108    77    79   ar
   109    96    95    1
   110    96    97    2
   111   125   124    1
   112    95    94    1
   113    95    98    1
   114    93    92    2
   115    92    94   am
   116    92    91    1
   117    98    99    1
   118   124   123    1
   119    91    90    1
   120   100    99    2
   121    99   101   am
   122   123   122    1
   123   122   119    1
   124   119   118    1
   125   119   120    1
   126   120   121    2
