@<TRIPOS>MOLECULE
tmp/2iz1C01.pdb
 97 96 0 0 0
SMALL
GASTEIGER

@<TRIPOS>ATOM
      1  N         -4.1420   15.3380   37.9350 N.3     2  GLN2       -0.1245
      2  CA        -5.1040   14.7120   38.8590 C.3     2  GLN2        0.1566
      3  C         -5.4680   13.3110   38.3590 C.2     2  GLN2        0.2260
      4  O         -6.1730   12.5680   39.0530 O.2     2  GLN2       -0.2867
      5  CB        -6.4040   15.5050   38.9430 C.3     2  GLN2        0.0367
      6  CG        -7.2420   15.3880   37.6630 C.3     2  GLN2        0.0905
      7  CD        -8.6550   15.8970   37.8030 C.2     2  GLN2        0.2608
      8  OE1       -9.3150   16.1860   36.7970 O.2     2  GLN2       -0.2717
      9  NE2       -9.1340   16.0240   39.0470 N.am    2  GLN2       -0.0878
     10  N         -5.5680    6.8100   39.0400 N.3    27  THR27      -0.1218
     11  CA        -6.7230    7.6000   38.6400 C.3    27  THR27       0.1862
     12  C         -6.6720    7.7570   37.1260 C.2    27  THR27       0.2287
     13  O         -5.6680    8.1940   36.5830 O.2    27  THR27      -0.2866
     14  CB        -6.7810    8.9590   39.3570 C.3    27  THR27       0.1770
     15  OG1       -6.8970    8.7450   40.7740 O.3    27  THR27      -0.2211
     16  CG2       -7.9770    9.7620   38.8760 C.3    27  THR27       0.0375
     17  N        -19.0490    6.6270   33.3390 N.3    42  PHE42      -0.1241
     18  CA       -19.0050    7.3990   34.5750 C.3    42  PHE42       0.1605
     19  C        -20.1220    6.9980   35.5600 C.2    42  PHE42       0.2264
     20  O        -19.8380    6.6890   36.7190 O.2    42  PHE42      -0.2867
     21  CB       -19.0160    8.9040   34.2520 C.3    42  PHE42       0.0534
     22  CG       -19.2530    9.8000   35.4440 C.ar   42  PHE42      -0.0203
     23  CD1      -18.1980   10.1800   36.2720 C.ar   42  PHE42      -0.0042
     24  CD2      -20.5310   10.2930   35.7140 C.ar   42  PHE42      -0.0042
     25  CE1      -18.4100   11.0210   37.3550 C.ar   42  PHE42      -0.0003
     26  CE2      -20.7570   11.1320   36.8050 C.ar   42  PHE42      -0.0003
     27  CZ       -19.6910   11.4960   37.6340 C.ar   42  PHE42      -0.0000
     28  N        -19.9580    3.3610   37.0370 N.3    45  HIS45      -0.1226
     29  CA       -18.7790    3.0760   37.8660 C.3    45  HIS45       0.1752
     30  C        -18.4490    4.2240   38.8080 C.2    45  HIS45       0.2596
     31  O        -17.3350    4.7520   38.8020 O.2    45  HIS45      -0.2718
     32  CB       -17.5650    2.7430   36.9930 C.3    45  HIS45       0.0759
     33  CG       -17.8190    1.6520   36.0050 C.ar   45  HIS45       0.0818
     34  ND1      -17.6480    0.3180   36.3110 N.ar   45  HIS45      -0.2268
     35  CD2      -18.2440    1.6940   34.7200 C.ar   45  HIS45       0.1154
     36  CE1      -17.9480   -0.4140   35.2520 C.ar   45  HIS45       0.1986
     37  NE2      -18.3100    0.3970   34.2730 N.ar   45  HIS45      -0.2212
     38  N        -19.4200    4.5950   39.6340 N.am   46  GLN46      -0.1965
     39  CA       -19.2330    5.6880   40.5790 C.3    46  GLN46       0.1733
     40  C        -18.2380    5.4040   41.7120 C.2    46  GLN46       0.2616
     41  O        -17.6970    6.3300   42.2930 O.2    46  GLN46      -0.2715
     42  CB       -20.5790    6.1790   41.1400 C.3    46  GLN46       0.0408
     43  CG       -21.3620    5.1770   41.9650 C.3    46  GLN46       0.0908
     44  CD       -22.7430    5.7050   42.3490 C.2    46  GLN46       0.2608
     45  OE1      -23.3360    5.2620   43.3330 O.2    46  GLN46      -0.2717
     46  NE2      -23.2550    6.6630   41.5710 N.am   46  GLN46      -0.0878
     47  N        -18.0060    4.1290   42.0100 N.am   47  ASP47      -0.1957
     48  CA       -17.0390    3.7310   43.0350 C.3    47  ASP47       0.1840
     49  C        -15.5780    3.6220   42.5190 C.2    47  ASP47       0.2622
     50  O        -14.6860    3.1620   43.2470 O.2    47  ASP47      -0.2715
     51  CB       -17.4870    2.4160   43.7010 C.3    47  ASP47       0.1450
     52  CG       -17.5030    1.2210   42.7250 C.2    47  ASP47       0.3671
     53  OD1      -17.7360    1.4090   41.4880 O.co2  47  ASP47      -0.2456
     54  OD2      -17.2920    0.0790   43.2130 O.co2  47  ASP47      -0.2456
     55  N        -15.3410    4.0530   41.2770 N.am   48  LYS48      -0.1963
     56  CA       -14.0290    3.9410   40.6470 C.3    48  LYS48       0.1728
     57  C        -13.4110    5.3050   40.4540 C.2    48  LYS48       0.2616
     58  O        -14.1100    6.2730   40.1800 O.2    48  LYS48      -0.2715
     59  CB       -14.1280    3.2570   39.2810 C.3    48  LYS48       0.0311
     60  CG       -14.8030    1.9070   39.2660 C.3    48  LYS48       0.0038
     61  CD       -14.1710    0.9590   40.2530 C.3    48  LYS48       0.0206
     62  CE       -14.6870   -0.4510   40.0440 C.3    48  LYS48       0.1093
     63  NZ       -14.0670   -1.3380   41.0520 N.3    48  LYS48      -0.1314
     64  N        -12.0890    5.3690   40.5590 N.am   49  ASN49      -0.1958
     65  CA       -11.3630    6.6160   40.3430 C.3    49  ASN49       0.1819
     66  C        -11.2000    6.9220   38.8460 C.2    49  ASN49       0.2621
     67  O        -10.1110    6.8140   38.2740 O.2    49  ASN49      -0.2715
     68  CB       -10.0370    6.5890   41.1040 C.3    49  ASN49       0.1195
     69  CG       -10.2250    6.1950   42.5670 C.2    49  ASN49       0.2630
     70  OD1      -10.6560    7.0010   43.3840 O.2    49  ASN49      -0.2716
     71  ND2       -9.9280    4.9480   42.8890 N.am   49  ASN49      -0.0877
     72  N        -12.3290    7.2810   38.2340 N.am   50  LEU50      -0.1963
     73  CA       -12.4000    7.6690   36.8300 C.3    50  LEU50       0.1728
     74  C        -12.6560    9.1670   36.7320 C.2    50  LEU50       0.2616
     75  O        -13.4620    9.7120   37.4900 O.2    50  LEU50      -0.2715
     76  CB       -13.5210    6.9030   36.1190 C.3    50  LEU50       0.0311
     77  CG       -13.4710    5.3730   36.1390 C.3    50  LEU50       0.0022
     78  CD1      -14.6380    4.8090   35.3510 C.3    50  LEU50       0.0001
     79  CD2      -12.1350    4.8440   35.5920 C.3    50  LEU50       0.0001
     80  N        -11.9570    9.8310   35.8210 N.am   51  VAL51      -0.1963
     81  CA       -12.1930   11.2520   35.5630 C.3    51  VAL51       0.1727
     82  C        -12.9280   11.4290   34.2300 C.2    51  VAL51       0.2616
     83  O        -12.3530   11.2650   33.1540 O.2    51  VAL51      -0.2715
     84  CB       -10.8850   12.1150   35.6140 C.3    51  VAL51       0.0290
     85  CG1      -11.2010   13.5990   35.3660 C.3    51  VAL51       0.0023
     86  CG2      -10.1760   11.9460   36.9660 C.3    51  VAL51       0.0023
     87  N        -14.2150   11.7420   34.3440 N.am   52  PHE52      -0.1974
     88  CA       -15.1020   12.0020   33.2200 C.3    52  PHE52       0.1639
     89  C        -14.6970   13.3450   32.6190 C.2    52  PHE52       0.2290
     90  O        -14.7010   14.3720   33.2960 O.2    52  PHE52      -0.2864
     91  CB       -16.5590   11.9700   33.7400 C.3    52  PHE52       0.0560
     92  CG       -17.6310   12.3320   32.7270 C.ar   52  PHE52      -0.0200
     93  CD1      -17.4040   12.3030   31.3540 C.ar   52  PHE52      -0.0042
     94  CD2      -18.9120   12.6620   33.1760 C.ar   52  PHE52      -0.0042
     95  CE1      -18.4230   12.6410   30.4420 C.ar   52  PHE52      -0.0003
     96  CE2      -19.9380   12.9940   32.2720 C.ar   52  PHE52      -0.0003
     97  CZ       -19.6830   12.9860   30.8960 C.ar   52  PHE52      -0.0000
@<TRIPOS>BOND
     1    95    97   ar
     2    95    93   ar
     3    97    96   ar
     4    93    92   ar
     5    96    94   ar
     6    89    88    1
     7    89    90    2
     8    92    94   ar
     9    92    91    1
    10    83    82    2
    11    88    91    1
    12    88    87    1
    13    17    18    1
    14    82    87   am
    15    82    81    1
    16    21    18    1
    17    21    22    1
    18    37    35   ar
    19    37    36   ar
    20    18    19    1
    21    35    33   ar
    22    36    34   ar
    23    78    77    1
    24    85    84    1
    25    22    24   ar
    26    22    23   ar
    27    19    20    2
    28    81    84    1
    29    81    80    1
    30    79    77    1
    31    84    86    1
    32    24    26   ar
    33    80    74   am
    34    33    34   ar
    35    33    32    1
    36    76    77    1
    37    76    73    1
    38    23    25   ar
    39    13    12    2
    40    74    73    1
    41    74    75    2
    42     8     7    2
    43    26    27   ar
    44    73    72    1
    45    32    29    1
    46    28    29    1
    47    12    11    1
    48    25    27   ar
    49     6     7    1
    50     6     5    1
    51     7     9   am
    52    29    30    1
    53     1     2    1
    54    72    66   am
    55    67    66    2
    56     3     2    1
    57     3     4    2
    58    11    10    1
    59    11    14    1
    60    31    30    2
    61    30    38   am
    62    66    65    1
    63     2     5    1
    64    16    14    1
    65    60    59    1
    66    60    61    1
    67    59    56    1
    68    14    15    1
    69    38    39    1
    70    62    61    1
    71    62    63    1
    72    58    57    2
    73    65    64    1
    74    65    68    1
    75    57    64   am
    76    57    56    1
    77    39    42    1
    78    39    40    1
    79    56    55    1
    80    68    69    1
    81    42    43    1
    82    55    49   am
    83    53    52   ar
    84    46    44   am
    85    40    47   am
    86    40    41    2
    87    43    44    1
    88    47    48    1
    89    44    45    2
    90    49    48    1
    91    49    50    2
    92    69    71   am
    93    69    70    2
    94    52    54   ar
    95    52    51    1
    96    48    51    1
