@<TRIPOS>MOLECULE
tmp/2iz1B00.pdb
 85 78 0 0 0
SMALL
GASTEIGER

@<TRIPOS>ATOM
      1  N         26.2510   16.5200   99.7440 N.3    12  GLY12      -0.1225
      2  CA        25.4380   17.5700   99.1280 C.3    12  GLY12       0.1811
      3  C         25.1630   18.6830  100.1220 C.2    12  GLY12       0.2280
      4  O         24.2920   18.5450  100.9970 O.2    12  GLY12      -0.2866
      5  N         24.2260   21.9120   99.3740 N.3    14  ALA14      -0.1245
      6  CA        23.1760   22.8760   99.0310 C.3    14  ALA14       0.1562
      7  C         22.2000   22.8810  100.2170 C.2    14  ALA14       0.2260
      8  O         22.3210   22.0670  101.1440 O.2    14  ALA14      -0.2867
      9  CB        22.4680   22.4950   97.7220 C.3    14  ALA14       0.0290
     10  N         30.7670   17.9420  100.0850 N.3    35  ASN35      -0.1225
     11  CA        30.2110   18.5320   98.8700 C.3    35  ASN35       0.1785
     12  C         31.2850   18.5340   97.7970 C.2    35  ASN35       0.2597
     13  O         32.4690   18.7510   98.0990 O.2    35  ASN35      -0.2718
     14  CB        29.7300   19.9630   99.1190 C.3    35  ASN35       0.1169
     15  CG        28.8610   20.4950   97.9880 C.2    35  ASN35       0.2627
     16  OD1       27.7500   20.0180   97.7670 O.2    35  ASN35      -0.2716
     17  ND2       29.3660   21.4960   97.2700 N.am   35  ASN35      -0.0877
     18  N         30.8700   18.2970   96.5510 N.am   36  ARG36      -0.1966
     19  CA        31.7820   18.3360   95.4120 C.3    36  ARG36       0.1729
     20  C         32.5940   19.6370   95.3920 C.2    36  ARG36       0.2616
     21  O         33.8230   19.5890   95.3200 O.2    36  ARG36      -0.2715
     22  CB        31.0390   18.1240   94.0850 C.3    36  ARG36       0.0348
     23  CG        31.9290   18.3740   92.8480 C.3    36  ARG36       0.0492
     24  CD        31.1560   18.3240   91.5430 C.3    36  ARG36       0.2205
     25  NE        30.0400   19.2680   91.4980 N.pl3  36  ARG36      -0.0865
     26  CZ        29.3010   19.4990   90.4140 C.cat  36  ARG36       0.5346
     27  NH1       29.5670   18.8670   89.2710 N.pl3  36  ARG36       0.1354
     28  NH2       28.2930   20.3620   90.4700 N.pl3  36  ARG36       0.1354
     29  N         31.9090   20.7810   95.4480 N.am   37  THR37      -0.1951
     30  CA        32.5810   22.0760   95.6100 C.3    37  THR37       0.1897
     31  C         32.8650   22.3380   97.0990 C.2    37  THR37       0.2313
     32  O         31.9550   22.6450   97.8690 O.2    37  THR37      -0.2863
     33  CB        31.7650   23.2470   94.9970 C.3    37  THR37       0.1794
     34  OG1       31.4000   22.9280   93.6490 O.3    37  THR37      -0.2208
     35  CG2       32.5850   24.5340   94.9820 C.3    37  THR37       0.0378
     36  N         31.6030   25.2790   99.7380 N.3    40  LYS40      -0.1245
     37  CA        30.2660   25.1860  100.3260 C.3    40  LYS40       0.1561
     38  C         30.2690   24.3890  101.6450 C.2    40  LYS40       0.2260
     39  O         29.5630   24.7420  102.5970 O.2    40  LYS40      -0.2867
     40  CB        29.3060   24.5710   99.3090 C.3    40  LYS40       0.0271
     41  CG        27.8700   25.0260   99.4550 C.3    40  LYS40       0.0035
     42  CD        27.3150   25.5180   98.1210 C.3    40  LYS40       0.0206
     43  CE        26.7830   24.3790   97.2580 C.3    40  LYS40       0.1093
     44  NZ        26.2290   24.8750   95.9420 N.3    40  LYS40      -0.1314
     45  N         22.1780   13.8380   99.0220 N.3    75  MET75      -0.1230
     46  CA        21.2880   14.9800   98.8240 C.3    75  MET75       0.1702
     47  C         21.8270   15.8230   97.6720 C.2    75  MET75       0.2592
     48  O         22.1560   17.0010   97.8420 O.2    75  MET75      -0.2718
     49  CB        21.1790   15.8080  100.1120 C.3    75  MET75       0.0401
     50  CG        20.4900   15.0870  101.2500 C.3    75  MET75       0.0596
     51  SD        18.8210   14.5270  100.8510 S.3    75  MET75      -0.1393
     52  CE        17.8610   16.0270  101.0660 C.3    75  MET75       0.0692
     53  N         21.9330   15.1870   96.5060 N.am   76  VAL76      -0.1966
     54  CA        22.5310   15.7900   95.3220 C.3    76  VAL76       0.1727
     55  C         21.5080   15.8660   94.1910 C.2    76  VAL76       0.2616
     56  O         20.4320   15.2530   94.2660 O.2    76  VAL76      -0.2715
     57  CB        23.8150   15.0290   94.8480 C.3    76  VAL76       0.0290
     58  CG1       24.9190   15.1230   95.8840 C.3    76  VAL76       0.0023
     59  CG2       23.5130   13.5660   94.5600 C.3    76  VAL76       0.0023
     60  N         21.8460   16.6320   93.1560 N.am   77  GLN77      -0.1977
     61  CA        20.9900   16.7970   91.9900 C.3    77  GLN77       0.1601
     62  C         20.5370   15.4450   91.4220 C.2    77  GLN77       0.2287
     63  O         21.3580   14.5550   91.1670 O.2    77  GLN77      -0.2864
     64  CB        21.7370   17.6150   90.9330 C.3    77  GLN77       0.0394
     65  CG        20.9780   17.8420   89.6310 C.3    77  GLN77       0.0908
     66  CD        21.8450   18.5210   88.6120 C.2    77  GLN77       0.2608
     67  OE1       22.3850   17.8760   87.7130 O.2    77  GLN77      -0.2717
     68  NE2       22.0270   19.8300   88.7680 N.am   77  GLN77      -0.0878
     69  N         23.7200   13.1350   88.1340 N.3    81  ALA81      -0.1245
     70  CA        24.5760   13.5900   89.2440 C.3    81  ALA81       0.1562
     71  C         24.5840   12.6330   90.4400 C.2    81  ALA81       0.2260
     72  O         25.5940   12.5070   91.1400 O.2    81  ALA81      -0.2867
     73  CB        24.1560   14.9710   89.6910 C.3    81  ALA81       0.0290
     74  N         26.5750    9.5420   89.2050 N.3    84  ALA84      -0.1231
     75  CA        27.9900    9.8980   89.2380 C.3    84  ALA84       0.1694
     76  C         28.5300    9.8870   90.6740 C.2    84  ALA84       0.2592
     77  O         29.6540    9.4450   90.9180 O.2    84  ALA84      -0.2718
     78  CB        28.2180   11.2530   88.5710 C.3    84  ALA84       0.0304
     79  N         27.7160   10.3490   91.6250 N.am   85  THR85      -0.1953
     80  CA        28.1030   10.3680   93.0440 C.3    85  THR85       0.1897
     81  C         28.1620    8.9550   93.6320 C.2    85  THR85       0.2313
     82  O         29.0940    8.6280   94.3730 O.2    85  THR85      -0.2863
     83  CB        27.1570   11.2540   93.8830 C.3    85  THR85       0.1794
     84  OG1       27.0700   12.5500   93.2800 O.3    85  THR85      -0.2208
     85  CG2       27.6630   11.3990   95.3140 C.3    85  THR85       0.0378
@<TRIPOS>BOND
     1    67    66    2
     2    69    70    1
     3    78    75    1
     4    66    68   am
     5    66    65    1
     6    74    75    1
     7    75    76    1
     8    70    73    1
     9    70    71    1
    10    27    26    1
    11    65    64    1
    12    26    28    1
    13    26    25    2
    14    71    72    2
    15    76    77    2
    16    76    79   am
    17    64    61    1
    18    63    62    2
    19    62    61    1
    20    25    24    1
    21    24    23    1
    22    79    80    1
    23    61    60    1
    24    23    22    1
    25    80    81    1
    26    80    83    1
    27    60    55   am
    28    84    83    1
    29    81    82    2
    30    34    33    1
    31    83    85    1
    32    22    19    1
    33    55    56    2
    34    55    54    1
    35    59    57    1
    36    57    54    1
    37    57    58    1
    38    35    33    1
    39    33    30    1
    40    21    20    2
    41    54    53    1
    42    20    19    1
    43    20    29   am
    44    19    18    1
    45    29    30    1
    46    30    31    1
    47    44    43    1
    48    53    47   am
    49    18    12   am
    50    31    32    2
    51    43    42    1
    52    17    15   am
    53    47    48    2
    54    47    46    1
    55     9     6    1
    56    16    15    2
    57    12    13    2
    58    12    11    1
    59    15    14    1
    60    42    41    1
    61    46    45    1
    62    46    49    1
    63    11    14    1
    64    11    10    1
    65     6     5    1
    66     6     7    1
    67     2     1    1
    68     2     3    1
    69    40    41    1
    70    40    37    1
    71    36    37    1
    72    49    50    1
    73     3     4    2
    74     7     8    2
    75    37    38    1
    76    51    52    1
    77    51    50    1
    78    38    39    2
