@<TRIPOS>MOLECULE
tmp/2izrA00.pdb
 155 147 0 0 0
SMALL
GASTEIGER

@<TRIPOS>ATOM
      1  N         13.7640   25.9750   26.6270 N.3    14  ILE14      -0.1231
      2  CA        12.3120   25.8840   26.8410 C.3    14  ILE14       0.1692
      3  C         11.5280   26.3940   25.6380 C.2    14  ILE14       0.2593
      4  O         12.0740   27.0550   24.7530 O.2    14  ILE14      -0.2718
      5  CB        11.8230   26.6230   28.1380 C.3    14  ILE14       0.0266
      6  CG1       12.1310   28.1170   28.0760 C.3    14  ILE14       0.0019
      7  CG2       12.3690   25.9340   29.3900 C.3    14  ILE14       0.0020
      8  CD1       11.6430   28.9180   29.2600 C.3    14  ILE14       0.0001
      9  N         10.2410   26.0580   25.6220 N.am   15  GLY15      -0.1942
     10  CA         9.3570   26.3510   24.4970 C.3    15  GLY15       0.2014
     11  C          9.5990   25.4520   23.2930 C.2    15  GLY15       0.2639
     12  O         10.6030   24.7260   23.2250 O.2    15  GLY15      -0.2714
     13  N          8.6640   25.5030   22.3470 N.am   16  CYS16      -0.1967
     14  CA         8.7800   24.7990   21.0680 C.3    16  CYS16       0.1712
     15  C          9.3460   25.7180   19.9840 C.2    16  CYS16       0.2296
     16  O          9.0420   26.9130   19.9440 O.2    16  CYS16      -0.2864
     17  CB         7.4120   24.2730   20.6360 C.3    16  CYS16       0.0983
     18  SG         6.7860   22.9560   21.6920 S.3    16  CYS16      -0.0798
     19  N         12.4250   27.3790   18.7720 N.3    17  ASN17      -0.1240
     20  CA        13.3750   28.2210   19.4990 C.3    17  ASN17       0.1653
     21  C         14.8260   27.8480   19.2010 C.2    17  ASN17       0.2266
     22  O         15.6490   28.7230   18.9340 O.2    17  ASN17      -0.2867
     23  CB        13.1100   28.1460   21.0070 C.3    17  ASN17       0.1155
     24  CG        11.7330   28.6620   21.3840 C.2    17  ASN17       0.2627
     25  OD1       11.1180   29.4210   20.6380 O.2    17  ASN17      -0.2716
     26  ND2       11.2410   28.2490   22.5440 N.am   17  ASN17      -0.0877
     27  N         17.3140   29.4100   21.4650 N.3    20  GLU20      -0.1231
     28  CA        17.1850   30.8490   21.5750 C.3    20  GLU20       0.1699
     29  C         16.6170   31.2350   22.9390 C.2    20  GLU20       0.2592
     30  O         16.8050   32.3470   23.3590 O.2    20  GLU20      -0.2718
     31  CB        16.2680   31.3990   20.4750 C.3    20  GLU20       0.0402
     32  CG        16.0920   32.8860   20.5040 C.3    20  GLU20       0.1161
     33  CD        15.3030   33.4790   19.3770 C.2    20  GLU20       0.3649
     34  OE1       14.7790   32.7530   18.5590 O.co2  20  GLU20      -0.2457
     35  OE2       15.0260   34.6870   19.3290 O.co2  20  GLU20      -0.2457
     36  N         15.8960   30.3210   23.5910 N.am   21  LEU21      -0.1980
     37  CA        15.1780   30.6290   24.8330 C.3    21  LEU21       0.1596
     38  C         15.4840   29.5880   25.8890 C.2    21  LEU21       0.2287
     39  O         15.2960   28.3960   25.6610 O.2    21  LEU21      -0.2864
     40  CB        13.6730   30.6620   24.5730 C.3    21  LEU21       0.0297
     41  CG        12.7800   30.9170   25.7850 C.3    21  LEU21       0.0022
     42  CD1       13.0120   32.2870   26.3620 C.3    21  LEU21       0.0001
     43  CD2       11.3120   30.7220   25.3950 C.3    21  LEU21       0.0001
     44  N         13.0760   34.2650   32.1990 N.3    34  ALA34      -0.1245
     45  CA        13.3250   33.8310   30.8220 C.3    34  ALA34       0.1562
     46  C         14.6450   34.4280   30.3720 C.2    34  ALA34       0.2260
     47  O         14.9410   35.5980   30.6840 O.2    34  ALA34      -0.2867
     48  CB        12.1940   34.3130   29.9100 C.3    34  ALA34       0.0290
     49  N         16.7310   35.1000   26.8850 N.3    36  LYS36      -0.1245
     50  CA        16.7820   35.1240   25.4200 C.3    36  LYS36       0.1561
     51  C         18.2390   35.2720   25.0000 C.2    36  LYS36       0.2260
     52  O         18.9640   36.1120   25.5220 O.2    36  LYS36      -0.2867
     53  CB        15.9020   36.2800   24.9200 C.3    36  LYS36       0.0271
     54  CG        15.5750   36.3020   23.4230 C.3    36  LYS36       0.0035
     55  CD        14.5230   37.3710   23.0890 C.3    36  LYS36       0.0206
     56  CE        14.2210   37.4090   21.5920 C.3    36  LYS36       0.1093
     57  NZ        12.9890   38.1920   21.2480 N.3    36  LYS36      -0.1314
     58  N         14.5570   38.4400   31.1300 N.3    80  LEU80      -0.1231
     59  CA        13.2630   39.0810   31.3260 C.3    80  LEU80       0.1693
     60  C         12.3300   38.2170   32.1410 C.2    80  LEU80       0.2592
     61  O         12.5970   37.0370   32.4050 O.2    80  LEU80      -0.2718
     62  CB        12.6290   39.5050   30.0040 C.3    80  LEU80       0.0284
     63  CG        12.1790   38.5250   28.9330 C.3    80  LEU80       0.0019
     64  CD1       11.3600   39.2910   27.8300 C.3    80  LEU80       0.0001
     65  CD2       13.3250   37.7750   28.2680 C.3    80  LEU80       0.0001
     66  N         11.2350   38.8440   32.5580 N.am   81  GLU81      -0.1966
     67  CA        10.1900   38.1730   33.3100 C.3    81  GLU81       0.1733
     68  C          9.6870   36.9340   32.5840 C.2    81  GLU81       0.2616
     69  O          9.3830   37.0140   31.3930 O.2    81  GLU81      -0.2715
     70  CB         9.0540   39.1860   33.5270 C.3    81  GLU81       0.0429
     71  CG         7.9300   38.6740   34.3790 C.3    81  GLU81       0.1163
     72  CD         6.8280   39.6930   34.5670 C.2    81  GLU81       0.3649
     73  OE1        6.9500   40.8310   34.0320 O.co2  81  GLU81      -0.2457
     74  OE2        5.8480   39.3200   35.2410 O.co2  81  GLU81      -0.2457
     75  N          9.5680   35.8150   33.3110 N.am   82  LEU82      -0.1963
     76  CA         9.0000   34.5810   32.8000 C.3    82  LEU82       0.1728
     77  C          7.4860   34.7640   32.8320 C.2    82  LEU82       0.2616
     78  O          6.8890   35.0480   33.8960 O.2    82  LEU82      -0.2715
     79  CB         9.4070   33.3570   33.6310 C.3    82  LEU82       0.0311
     80  CG         8.9430   31.9950   33.1060 C.3    82  LEU82       0.0022
     81  CD1        9.6080   31.6590   31.8010 C.3    82  LEU82       0.0001
     82  CD2        9.2330   30.9190   34.1340 C.3    82  LEU82       0.0001
     83  N          6.8710   34.6090   31.6710 N.am   83  LEU83      -0.1963
     84  CA         5.4420   34.7230   31.5250 C.3    83  LEU83       0.1728
     85  C          4.8220   33.3330   31.2920 C.2    83  LEU83       0.2617
     86  O          5.5300   32.3240   31.3050 O.2    83  LEU83      -0.2715
     87  CB         5.1460   35.6820   30.3880 C.3    83  LEU83       0.0311
     88  CG         5.5880   37.1310   30.5950 C.3    83  LEU83       0.0022
     89  CD1        5.4150   37.9290   29.3210 C.3    83  LEU83       0.0001
     90  CD2        4.8420   37.7900   31.7620 C.3    83  LEU83       0.0001
     91  N          3.5070   33.2930   31.1330 N.am   84  GLY84      -0.1941
     92  CA         2.7830   32.0610   30.8280 C.3    84  GLY84       0.1999
     93  C          2.6960   31.8240   29.3340 C.2    84  GLY84       0.2485
     94  O          3.4400   32.4350   28.5540 O.2    84  GLY84      -0.2729
     95  N          1.7980   30.9050   28.9300 N.am   85  PRO85      -0.2651
     96  CA         1.6620   30.5620   27.5160 C.3    85  PRO85       0.1628
     97  C          1.1790   31.7070   26.6280 C.2    85  PRO85       0.2315
     98  O          0.5390   32.6650   27.0850 O.2    85  PRO85      -0.2861
     99  CB         0.6560   29.4030   27.5140 C.2    85  PRO85      -0.0016
    100  CG         0.3640   29.0870   28.8840 C.2    85  PRO85      -0.0072
    101  CD         0.9500   30.0780   29.8000 C.3    85  PRO85       0.1203
    102  N         -0.6700   29.2590   21.8520 N.3    89  ASP89      -0.1239
    103  CA        -0.6610   28.0370   22.6690 C.3    89  ASP89       0.1674
    104  C         -2.0640   27.8020   23.2430 C.2    89  ASP89       0.2266
    105  O         -2.6010   26.6790   23.2350 O.2    89  ASP89      -0.2867
    106  CB         0.3130   28.1520   23.8610 C.3    89  ASP89       0.1410
    107  CG         1.7630   28.3020   23.4680 C.2    89  ASP89       0.3668
    108  OD1        2.1670   27.8040   22.3980 O.co2  89  ASP89      -0.2456
    109  OD2        2.5160   28.9040   24.2990 O.co2  89  ASP89      -0.2456
    110  N          1.3620   34.4890   18.8380 N.3   130  GLU130     -0.1245
    111  CA         2.5600   34.0320   19.5140 C.3   130  GLU130      0.1567
    112  C          3.2300   35.0940   20.3840 C.2   130  GLU130      0.2260
    113  O          4.0150   34.7520   21.2870 O.2   130  GLU130     -0.2867
    114  CB         3.5700   33.5060   18.4990 C.3   130  GLU130      0.0388
    115  CG         3.1630   32.2290   17.7740 C.3   130  GLU130      0.1160
    116  CD         2.2630   32.4140   16.5210 C.2   130  GLU130      0.3649
    117  OE1        1.7760   33.5190   16.2030 O.co2 130  GLU130     -0.2457
    118  OE2        2.0310   31.3750   15.8480 O.co2 130  GLU130     -0.2457
    119  N          1.2160   36.9560   25.6350 N.3   133  LEU133     -0.1245
    120  CA         1.3540   35.8980   26.6340 C.3   133  LEU133      0.1561
    121  C          0.6040   36.2820   27.8980 C.2   133  LEU133      0.2260
    122  O          0.6260   37.4410   28.3170 O.2   133  LEU133     -0.2867
    123  CB         2.8070   35.6350   27.0150 C.3   133  LEU133      0.0270
    124  CG         3.6710   34.7840   26.0780 C.3   133  LEU133      0.0019
    125  CD1        3.7140   35.3330   24.6500 C.3   133  LEU133      0.0001
    126  CD2        5.0610   34.6350   26.6650 C.3   133  LEU133      0.0001
    127  N          5.0630   40.8540   23.9780 N.3   148  ILE148     -0.1245
    128  CA         6.4870   40.5780   23.8920 C.3   148  ILE148      0.1561
    129  C          6.9800   40.7600   22.4680 C.2   148  ILE148      0.2260
    130  O          6.1850   40.9040   21.5570 O.2   148  ILE148     -0.2867
    131  CB         6.8780   39.1760   24.4240 C.3   148  ILE148      0.0252
    132  CG1        6.4110   38.0590   23.5040 C.3   148  ILE148      0.0019
    133  CG2        6.3560   38.9490   25.8530 C.3   148  ILE148      0.0019
    134  CD1        6.9950   36.7040   23.7850 C.3   148  ILE148      0.0001
    135  N          0.6760   24.5680   29.3880 N.3   295  PRO295     -0.2102
    136  CA         2.0800   24.1630   29.2690 C.3   295  PRO295      0.1504
    137  C          2.9830   25.0730   30.1000 C.2   295  PRO295      0.2576
    138  O          2.8080   26.2950   30.0750 O.2   295  PRO295     -0.2718
    139  CB         2.3700   24.3390   27.7750 C.3   295  PRO295      0.0282
    140  CG         1.4070   25.3870   27.3260 C.3   295  PRO295      0.0208
    141  CD         0.1670   25.1760   28.1430 C.3   295  PRO295      0.0893
    142  N          3.9310   24.4820   30.8270 N.am  296  THR296     -0.1940
    143  CA         4.7850   25.2370   31.7440 C.3   296  THR296      0.2013
    144  C          6.2190   24.7080   31.7460 C.2   296  THR296      0.2484
    145  O          6.4280   23.4950   31.8420 O.2   296  THR296     -0.2729
    146  CB         4.2490   25.1710   33.1910 C.3   296  THR296      0.1807
    147  OG1        4.2210   23.8110   33.5950 O.3   296  THR296     -0.2208
    148  CG2        2.8720   25.7950   33.3170 C.3   296  THR296      0.0379
    149  N          7.2120   25.6150   31.6440 N.am  297  PRO297     -0.2726
    150  CA         8.6100   25.2020   31.7900 C.3   297  PRO297      0.1402
    151  C          8.9860   24.8170   33.2330 C.2   297  PRO297      0.2269
    152  O          9.9330   24.0510   33.4370 O.2   297  PRO297     -0.2865
    153  CB         9.3900   26.4410   31.3320 C.3   297  PRO297      0.0296
    154  CG         8.4770   27.5850   31.5580 C.3   297  PRO297      0.0237
    155  CD         7.0850   27.0650   31.3860 C.3   297  PRO297      0.0939
@<TRIPOS>BOND
     1   118   116   ar
     2   117   116   ar
     3   116   115    1
     4   115   114    1
     5   114   111    1
     6    34    33   ar
     7    19    20    1
     8   110   111    1
     9    22    21    2
    10    21    20    1
    11    35    33   ar
    12    33    32    1
    13    20    23    1
    14   111   112    1
    15    16    15    2
    16    15    14    1
    17   112   113    2
    18    31    32    1
    19    31    28    1
    20    17    14    1
    21    17    18    1
    22    25    24    2
    23    23    24    1
    24    14    13    1
    25    57    56    1
    26    24    26   am
    27    27    28    1
    28   130   129    2
    29    28    29    1
    30    56    55    1
    31   102   103    1
    32    13    11   am
    33   108   107   ar
    34   129   128    1
    35   103   104    1
    36   103   106    1
    37    29    30    2
    38    29    36   am
    39    55    54    1
    40    12    11    2
    41   105   104    2
    42    11    10    1
    43    54    53    1
    44   107   106    1
    45   107   109   ar
    46   132   134    1
    47   132   131    1
    48    36    37    1
    49   128   127    1
    50   128   131    1
    51   131   133    1
    52    10     9    1
    53    40    37    1
    54    40    41    1
    55   125   124    1
    56     4     3    2
    57    37    38    1
    58    53    50    1
    59    51    50    1
    60    51    52    2
    61    43    41    1
    62    50    49    1
    63     9     3   am
    64   119   120    1
    65     3     2    1
    66    39    38    2
    67    41    42    1
    68   124   126    1
    69   124   123    1
    70     1     2    1
    71    97    98    2
    72    97    96    1
    73   120   123    1
    74   120   121    1
    75     2     5    1
    76   140   139    1
    77   140   141    1
    78    99    96    1
    79    99   100    2
    80    96    95    1
    81   139   136    1
    82    64    63    1
    83   121   122    2
    84     6     5    1
    85     6     8    1
    86     5     7    1
    87   141   135    1
    88    65    63    1
    89    94    93    2
    90   100   101    1
    91    95    93   am
    92    95   101    1
    93    63    62    1
    94   136   135    1
    95   136   137    1
    96    89    88    1
    97    93    92    1
    98    48    45    1
    99    62    59    1
   100   138   137    2
   101   137   142   am
   102    46    47    2
   103    46    45    1
   104    87    88    1
   105    87    84    1
   106    88    90    1
   107    45    44    1
   108   142   143    1
   109    92    91    1
   110    58    59    1
   111    91    85   am
   112    85    86    2
   113    85    84    1
   114    59    60    1
   115   153   154    1
   116   153   150    1
   117   155   154    1
   118   155   149    1
   119    69    68    2
   120    84    83    1
   121   149   144   am
   122   149   150    1
   123    83    77   am
   124   143   144    1
   125   143   146    1
   126   144   145    2
   127   150   151    1
   128    81    80    1
   129    60    61    2
   130    60    66   am
   131    66    67    1
   132    68    67    1
   133    68    75   am
   134    76    77    1
   135    76    75    1
   136    76    79    1
   137    77    78    2
   138    80    79    1
   139    80    82    1
   140   146   148    1
   141   146   147    1
   142   151   152    2
   143    67    70    1
   144    70    71    1
   145    73    72   ar
   146    71    72    1
   147    72    74   ar
