@<TRIPOS>MOLECULE
tmp/2izsA00.pdb
 163 155 0 0 0
SMALL
GASTEIGER

@<TRIPOS>ATOM
      1  N         41.5690  -22.8190   26.2620 N.3    14  ILE14      -0.1231
      2  CA        40.1150  -22.8870   26.4120 C.3    14  ILE14       0.1692
      3  C         39.4060  -22.3790   25.1410 C.2    14  ILE14       0.2593
      4  O         40.0500  -21.8200   24.2460 O.2    14  ILE14      -0.2718
      5  CB        39.6260  -22.1230   27.6930 C.3    14  ILE14       0.0266
      6  CG1       39.9120  -20.6080   27.5960 C.3    14  ILE14       0.0019
      7  CG2       40.2450  -22.7430   28.9400 C.3    14  ILE14       0.0020
      8  CD1       39.3650  -19.8050   28.7870 C.3    14  ILE14       0.0001
      9  N         38.0940  -22.6260   25.0630 N.am   15  GLY15      -0.1942
     10  CA        37.2630  -22.2350   23.9090 C.3    15  GLY15       0.2014
     11  C         37.4450  -23.0810   22.6460 C.2    15  GLY15       0.2639
     12  O         38.2220  -24.0460   22.6300 O.2    15  GLY15      -0.2714
     13  N         36.7200  -22.7000   21.5900 N.am   16  CYS16      -0.1967
     14  CA        36.8260  -23.3120   20.2510 C.3    16  CYS16       0.1712
     15  C         37.3800  -22.3170   19.2400 C.2    16  CYS16       0.2296
     16  O         37.1370  -21.1090   19.3480 O.2    16  CYS16      -0.2864
     17  CB        35.4570  -23.7850   19.7550 C.3    16  CYS16       0.0983
     18  SG        34.9820  -25.4120   20.3160 S.3    16  CYS16      -0.0798
     19  N         40.5210  -20.3990   17.9720 N.3    18  ASN18      -0.1240
     20  CA        41.7110  -19.9330   18.7020 C.3    18  ASN18       0.1653
     21  C         43.0280  -20.5150   18.1570 C.2    18  ASN18       0.2266
     22  O         43.8200  -19.7980   17.5400 O.2    18  ASN18      -0.2867
     23  CB        41.5620  -20.2190   20.2160 C.3    18  ASN18       0.1155
     24  CG        40.2090  -19.7690   20.7730 C.2    18  ASN18       0.2627
     25  OD1       39.6120  -18.8230   20.2760 O.2    18  ASN18      -0.2716
     26  ND2       39.7260  -20.4500   21.7980 N.am   18  ASN18      -0.0877
     27  N         45.2130  -19.3870   21.0380 N.3    21  GLU21      -0.1231
     28  CA        45.1480  -17.9540   21.2250 C.3    21  GLU21       0.1699
     29  C         44.4900  -17.5990   22.5620 C.2    21  GLU21       0.2592
     30  O         44.7140  -16.5160   23.0740 O.2    21  GLU21      -0.2718
     31  CB        44.3850  -17.3030   20.0590 C.3    21  GLU21       0.0402
     32  CG        44.2340  -15.8260   20.2360 C.3    21  GLU21       0.1161
     33  CD        43.4280  -15.1650   19.1480 C.2    21  GLU21       0.3649
     34  OE1       42.6360  -15.7970   18.4090 O.co2  21  GLU21      -0.2457
     35  OE2       43.5660  -13.9680   18.9130 O.co2  21  GLU21      -0.2457
     36  N         43.6680  -18.5000   23.1070 N.am   22  LEU22      -0.1980
     37  CA        42.9640  -18.2600   24.3850 C.3    22  LEU22       0.1596
     38  C         43.2780  -19.3140   25.4460 C.2    22  LEU22       0.2287
     39  O         43.1000  -20.5100   25.2370 O.2    22  LEU22      -0.2864
     40  CB        41.4610  -18.2120   24.1980 C.3    22  LEU22       0.0297
     41  CG        40.5790  -17.9080   25.4200 C.3    22  LEU22       0.0022
     42  CD1       40.8290  -16.4860   25.9710 C.3    22  LEU22       0.0001
     43  CD2       39.1060  -18.1150   24.9860 C.3    22  LEU22       0.0001
     44  N         40.8650  -14.5280   31.6860 N.3    35  ALA35      -0.1245
     45  CA        41.1200  -14.9370   30.2960 C.3    35  ALA35       0.1562
     46  C         42.4770  -14.4080   29.8970 C.2    35  ALA35       0.2260
     47  O         42.8250  -13.2620   30.2000 O.2    35  ALA35      -0.2867
     48  CB        40.0330  -14.4200   29.3080 C.3    35  ALA35       0.0290
     49  N         44.4640  -13.8510   26.4640 N.3    37  LYS37      -0.1245
     50  CA        44.5470  -13.8050   25.0220 C.3    37  LYS37       0.1561
     51  C         46.0170  -13.7110   24.6730 C.2    37  LYS37       0.2260
     52  O         46.7390  -12.8800   25.2200 O.2    37  LYS37      -0.2867
     53  CB        43.8370  -12.5750   24.4740 C.3    37  LYS37       0.0271
     54  CG        42.3530  -12.6310   24.3950 C.3    37  LYS37       0.0035
     55  CD        41.8160  -11.4150   23.6240 C.3    37  LYS37       0.0206
     56  CE        41.8330  -11.6160   22.1120 C.3    37  LYS37       0.1093
     57  NZ        40.9320  -10.6570   21.4120 N.3    37  LYS37      -0.1314
     58  N         42.4300  -10.4860   30.7230 N.3    81  LEU81      -0.1231
     59  CA        41.1380   -9.8110   30.8430 C.3    81  LEU81       0.1693
     60  C         40.2000  -10.6750   31.6600 C.2    81  LEU81       0.2592
     61  O         40.4990  -11.8340   31.9540 O.2    81  LEU81      -0.2718
     62  CB        40.5420   -9.4370   29.4420 C.3    81  LEU81       0.0284
     63  CG        39.9940  -10.4790   28.4600 C.3    81  LEU81       0.0019
     64  CD1       39.1480   -9.7760   27.3900 C.3    81  LEU81       0.0001
     65  CD2       41.1040  -11.2780   27.8100 C.3    81  LEU81       0.0001
     66  N         39.0770  -10.0800   32.0440 N.am   82  GLU82      -0.1966
     67  CA        38.0670  -10.7470   32.8000 C.3    82  GLU82       0.1733
     68  C         37.5450  -12.0010   32.0810 C.2    82  GLU82       0.2616
     69  O         37.3120  -11.9780   30.8700 O.2    82  GLU82      -0.2715
     70  CB        36.9430   -9.7680   33.0550 C.3    82  GLU82       0.0429
     71  CG        35.8580  -10.3010   33.9220 C.3    82  GLU82       0.1163
     72  CD        34.7450   -9.3130   34.1070 C.2    82  GLU82       0.3649
     73  OE1       34.8200   -8.1950   33.5190 O.co2  82  GLU82      -0.2457
     74  OE2       33.7930   -9.6620   34.8370 O.co2  82  GLU82      -0.2457
     75  N         37.4910  -13.0980   32.8320 N.am   83  LEU83      -0.1963
     76  CA        36.9280  -14.3390   32.3590 C.3    83  LEU83       0.1728
     77  C         35.4030  -14.1590   32.3640 C.2    83  LEU83       0.2616
     78  O         34.8100  -13.8020   33.3620 O.2    83  LEU83      -0.2715
     79  CB        37.3490  -15.5420   33.2310 C.3    83  LEU83       0.0311
     80  CG        36.9630  -16.9380   32.6850 C.3    83  LEU83       0.0022
     81  CD1       37.5940  -17.1270   31.3300 C.3    83  LEU83       0.0001
     82  CD2       37.3760  -18.0970   33.6450 C.3    83  LEU83       0.0001
     83  N         34.8070  -14.3810   31.2090 N.am   84  LEU84      -0.1963
     84  CA        33.3970  -14.2290   30.9980 C.3    84  LEU84       0.1728
     85  C         32.8470  -15.6140   30.7510 C.2    84  LEU84       0.2617
     86  O         33.6140  -16.5950   30.7820 O.2    84  LEU84      -0.2715
     87  CB        33.1670  -13.2970   29.8220 C.3    84  LEU84       0.0311
     88  CG        33.5820  -11.8530   30.1190 C.3    84  LEU84       0.0022
     89  CD1       33.4100  -11.0040   28.8490 C.3    84  LEU84       0.0001
     90  CD2       32.7580  -11.2840   31.3110 C.3    84  LEU84       0.0001
     91  N         31.5250  -15.6920   30.6260 N.am   85  GLY85      -0.1941
     92  CA        30.8170  -16.9330   30.3470 C.3    85  GLY85       0.1998
     93  C         30.7370  -17.2070   28.8480 C.2    85  GLY85       0.2480
     94  O         31.4820  -16.6080   28.0460 O.2    85  GLY85      -0.2729
     95  N         29.8340  -18.1180   28.4590 N.am   86  PRO86      -0.2726
     96  CA        29.6180  -18.4270   27.0600 C.3    86  PRO86       0.1402
     97  C         29.1140  -17.2460   26.2250 C.2    86  PRO86       0.2269
     98  O         28.4640  -16.3150   26.7190 O.2    86  PRO86      -0.2865
     99  CB        28.5670  -19.5400   27.1000 C.3    86  PRO86       0.0296
    100  CG        27.9420  -19.4140   28.3760 C.3    86  PRO86       0.0237
    101  CD        28.9730  -18.9370   29.3170 C.3    86  PRO86       0.0939
    102  N         27.3270  -19.7140   21.4420 N.3    90  ASP90      -0.1239
    103  CA        27.3450  -20.9480   22.2670 C.3    90  ASP90       0.1674
    104  C         25.9320  -21.1880   22.8150 C.2    90  ASP90       0.2266
    105  O         25.4200  -22.3130   22.8520 O.2    90  ASP90      -0.2867
    106  CB        28.2650  -20.8140   23.5060 C.3    90  ASP90       0.1410
    107  CG        29.7370  -20.6520   23.1820 C.2    90  ASP90       0.3668
    108  OD1       30.1710  -21.1500   22.1390 O.co2  90  ASP90      -0.2456
    109  OD2       30.4870  -20.0380   24.0020 O.co2  90  ASP90      -0.2456
    110  N         29.2540  -14.4910   18.6550 N.3   131  GLU131     -0.1231
    111  CA        30.5130  -14.9220   19.2830 C.3   131  GLU131      0.1699
    112  C         31.2250  -13.8620   20.1040 C.2   131  GLU131      0.2592
    113  O         31.9910  -14.2200   21.0000 O.2   131  GLU131     -0.2718
    114  CB        31.5010  -15.4310   18.2120 C.3   131  GLU131      0.0402
    115  CG        31.0590  -16.7080   17.4860 C.3   131  GLU131      0.1161
    116  CD        30.1830  -16.4790   16.2230 C.2   131  GLU131      0.3649
    117  OE1       29.6430  -15.3740   15.9960 O.co2 131  GLU131     -0.2457
    118  OE2       30.0090  -17.4510   15.4640 O.co2 131  GLU131     -0.2457
    119  N         31.0030  -12.5780   19.7990 N.am  132  ASN132     -0.1974
    120  CA        31.6360  -11.4840   20.5340 C.3   132  ASN132      0.1688
    121  C         30.7830  -10.8650   21.6340 C.2   132  ASN132      0.2292
    122  O         31.1570   -9.8530   22.2160 O.2   132  ASN132     -0.2864
    123  CB        32.1050  -10.4070   19.5620 C.3   132  ASN132      0.1181
    124  CG        33.1910  -10.8810   18.6760 C.2   132  ASN132      0.2629
    125  OD1       33.7640  -11.9370   18.9040 O.2   132  ASN132     -0.2716
    126  ND2       33.4990  -10.0960   17.6390 N.am  132  ASN132     -0.0877
    127  N         29.2720  -12.0320   25.2410 N.3   134  LEU134     -0.1245
    128  CA        29.3300  -13.0790   26.2420 C.3   134  LEU134      0.1561
    129  C         28.5520  -12.7100   27.4680 C.2   134  LEU134      0.2260
    130  O         28.5320  -11.5530   27.8840 O.2   134  LEU134     -0.2867
    131  CB        30.7720  -13.4070   26.6410 C.3   134  LEU134      0.0270
    132  CG        31.6370  -14.2390   25.6940 C.3   134  LEU134      0.0019
    133  CD1       31.7430  -13.6560   24.2390 C.3   134  LEU134      0.0001
    134  CD2       33.0240  -14.3540   26.3450 C.3   134  LEU134      0.0001
    135  N         32.9760   -8.2260   23.6450 N.3   149  ILE149     -0.1245
    136  CA        34.3940   -8.4800   23.6020 C.3   149  ILE149      0.1561
    137  C         34.8600   -8.2710   22.1790 C.2   149  ILE149      0.2260
    138  O         34.0450   -8.0260   21.2910 O.2   149  ILE149     -0.2867
    139  CB        34.7730   -9.9090   24.1100 C.3   149  ILE149      0.0252
    140  CG1       34.2340  -11.0210   23.1930 C.3   149  ILE149      0.0019
    141  CG2       34.3520  -10.1340   25.5870 C.3   149  ILE149      0.0019
    142  CD1       34.7640  -12.3980   23.5740 C.3   149  ILE149      0.0001
    143  N         28.0820  -24.0770   28.8670 N.3   296  PRO296     -0.2102
    144  CA        29.5300  -24.2910   28.8170 C.3   296  PRO296      0.1504
    145  C         30.2750  -23.4380   29.8640 C.2   296  PRO296      0.2576
    146  O         29.7830  -22.3650   30.2680 O.2   296  PRO296     -0.2718
    147  CB        29.9120  -23.8470   27.3960 C.3   296  PRO296      0.0282
    148  CG        28.6560  -23.8210   26.6250 C.3   296  PRO296      0.0208
    149  CD        27.5490  -23.5650   27.5910 C.3   296  PRO296      0.0893
    150  N         31.4100  -23.9600   30.3310 N.am  297  THR297     -0.1940
    151  CA        32.3820  -23.2360   31.1550 C.3   297  THR297      0.2013
    152  C         33.7730  -23.3300   30.4790 C.2   297  THR297      0.2484
    153  O         33.9670  -24.1400   29.5580 O.2   297  THR297     -0.2729
    154  CB        32.5090  -23.8500   32.5650 C.3   297  THR297      0.1807
    155  OG1       32.4170  -25.2780   32.4570 O.3   297  THR297     -0.2208
    156  CG2       31.4320  -23.3220   33.5020 C.3   297  THR297      0.0379
    157  N         34.7390  -22.4880   30.9020 N.am  298  PRO298     -0.2726
    158  CA        34.6880  -21.2910   31.7500 C.3   298  PRO298      0.1402
    159  C         33.5030  -20.3390   31.5240 C.2   298  PRO298      0.2269
    160  O         33.5070  -19.2080   32.0250 O.2   298  PRO298     -0.2865
    161  CB        35.9810  -20.5860   31.3760 C.3   298  PRO298      0.0296
    162  CG        36.9270  -21.7240   31.1690 C.3   298  PRO298      0.0237
    163  CD        36.1300  -22.8020   30.5170 C.3   298  PRO298      0.0939
@<TRIPOS>BOND
     1   118   116   ar
     2   117   116   ar
     3   116   115    1
     4   115   114    1
     5    22    21    2
     6   126   124   am
     7    19    20    1
     8    21    20    1
     9   114   111    1
    10    34    33   ar
    11   110   111    1
    12   124   125    2
    13   124   123    1
    14    20    23    1
    15    35    33   ar
    16    33    32    1
    17    15    16    2
    18    15    14    1
    19   111   112    1
    20   123   120    1
    21    17    14    1
    22    17    18    1
    23   119   112   am
    24   119   120    1
    25    31    32    1
    26    31    28    1
    27   112   113    2
    28    23    24    1
    29    14    13    1
    30    25    24    2
    31   120   121    1
    32    24    26   am
    33    27    28    1
    34    28    29    1
    35   138   137    2
    36    57    56    1
    37   102   103    1
    38    13    11   am
    39   121   122    2
    40    56    55    1
    41   108   107   ar
    42   137   136    1
    43   103   104    1
    44   103   106    1
    45    29    30    2
    46    29    36   am
    47    12    11    2
    48    11    10    1
    49   104   105    2
    50    36    37    1
    51   107   106    1
    52   107   109   ar
    53   140   142    1
    54   140   139    1
    55   136   135    1
    56   136   139    1
    57    55    54    1
    58    10     9    1
    59   139   141    1
    60    40    37    1
    61    40    41    1
    62   133   132    1
    63     4     3    2
    64    37    38    1
    65    54    53    1
    66    53    50    1
    67    51    50    1
    68    51    52    2
    69    43    41    1
    70    50    49    1
    71     9     3   am
    72     3     2    1
    73    39    38    2
    74   127   128    1
    75    41    42    1
    76   132   134    1
    77   132   131    1
    78    97    98    2
    79    97    96    1
    80   128   131    1
    81   128   129    1
    82     1     2    1
    83     2     5    1
    84   148   147    1
    85   148   149    1
    86    96    99    1
    87    96    95    1
    88    99   100    1
    89    64    63    1
    90   147   144    1
    91   129   130    2
    92   149   143    1
    93     6     5    1
    94     6     8    1
    95     5     7    1
    96    65    63    1
    97    94    93    2
    98   100   101    1
    99    95    93   am
   100    95   101    1
   101    63    62    1
   102   144   143    1
   103   144   145    1
   104    93    92    1
   105    89    88    1
   106    48    45    1
   107    62    59    1
   108   153   152    2
   109    87    88    1
   110    87    84    1
   111   145   146    2
   112   145   150   am
   113    46    47    2
   114    46    45    1
   115    88    90    1
   116    45    44    1
   117   150   151    1
   118    92    91    1
   119   152   157   am
   120   152   151    1
   121   163   157    1
   122   163   162    1
   123    91    85   am
   124    58    59    1
   125    85    86    2
   126    85    84    1
   127    59    60    1
   128    69    68    2
   129   157   158    1
   130    84    83    1
   131   151   154    1
   132   162   161    1
   133    83    77   am
   134    81    80    1
   135   161   158    1
   136   159   158    1
   137   159   160    2
   138    60    61    2
   139    60    66   am
   140    66    67    1
   141    68    67    1
   142    68    75   am
   143    76    77    1
   144    76    75    1
   145    76    79    1
   146    77    78    2
   147   155   154    1
   148   154   156    1
   149    80    79    1
   150    80    82    1
   151    67    70    1
   152    70    71    1
   153    73    72   ar
   154    71    72    1
   155    72    74   ar
