@<TRIPOS>MOLECULE
tmp/2iztA00.pdb
 166 159 0 0 0
SMALL
GASTEIGER

@<TRIPOS>ATOM
      1  N         41.6250  -22.3110   26.2790 N.3    13  ILE13      -0.1231
      2  CA        40.1650  -22.3200   26.3180 C.3    13  ILE13       0.1692
      3  C         39.5130  -21.7730   25.0300 C.2    13  ILE13       0.2593
      4  O         38.3200  -21.9980   24.8150 O.2    13  ILE13      -0.2718
      5  CB        39.6010  -21.5970   27.5960 C.3    13  ILE13       0.0266
      6  CG1       39.8770  -20.0890   27.5630 C.3    13  ILE13       0.0019
      7  CG2       40.0800  -22.3160   28.8640 C.3    13  ILE13       0.0020
      8  CD1       39.6770  -19.3670   28.8690 C.3    13  ILE13       0.0001
      9  N         40.2890  -21.0880   24.1810 N.am   14  GLY14      -0.1942
     10  CA        39.8580  -20.6610   22.8290 C.3    14  GLY14       0.2014
     11  C         40.9900  -20.4540   21.8110 C.2    14  GLY14       0.2639
     12  O         42.1880  -20.5130   22.1670 O.2    14  GLY14      -0.2714
     13  N         40.6060  -20.2320   20.5450 N.am   15  CYS15      -0.1967
     14  CA        41.5400  -19.8230   19.4590 C.3    15  CYS15       0.1712
     15  C         41.2200  -18.4320   18.9010 C.2    15  CYS15       0.2296
     16  O         41.6290  -17.4100   19.4690 O.2    15  CYS15      -0.2864
     17  CB        41.5260  -20.8180   18.3030 C.3    15  CYS15       0.0983
     18  SG        42.3450  -22.3550   18.6800 S.3    15  CYS15      -0.0798
     19  N         43.3810  -17.8100   23.3670 N.3    19  LEU19      -0.1245
     20  CA        42.9010  -17.4460   24.6770 C.3    19  LEU19       0.1561
     21  C         43.2080  -18.5720   25.6670 C.2    19  LEU19       0.2260
     22  O         42.9550  -19.7510   25.4100 O.2    19  LEU19      -0.2867
     23  CB        41.4020  -17.1520   24.6370 C.3    19  LEU19       0.0270
     24  CG        40.7820  -16.5750   25.9080 C.3    19  LEU19       0.0019
     25  CD1       41.2110  -15.1290   26.1520 C.3    19  LEU19       0.0001
     26  CD2       39.2960  -16.6880   25.7190 C.3    19  LEU19       0.0001
     27  N         41.1190  -14.1900   31.9760 N.3    32  ALA32      -0.1245
     28  CA        41.3620  -14.5180   30.5800 C.3    32  ALA32       0.1562
     29  C         42.7290  -13.9710   30.1510 C.2    32  ALA32       0.2260
     30  O         43.0940  -12.8580   30.5010 O.2    32  ALA32      -0.2867
     31  CB        40.2540  -13.9650   29.6810 C.3    32  ALA32       0.0290
     32  N         44.6790  -13.4150   26.6570 N.3    34  LYS34      -0.1245
     33  CA        44.6730  -13.4170   25.2160 C.3    34  LYS34       0.1561
     34  C         46.1390  -13.2900   24.8510 C.2    34  LYS34       0.2260
     35  O         46.7900  -12.3640   25.2840 O.2    34  LYS34      -0.2867
     36  CB        43.8510  -12.2190   24.7110 C.3    34  LYS34       0.0271
     37  CG        42.9560  -12.5300   23.5550 C.3    34  LYS34       0.0035
     38  CD        42.3540  -11.3050   22.9650 C.3    34  LYS34       0.0206
     39  CE        42.0010  -11.5540   21.5230 C.3    34  LYS34       0.1093
     40  NZ        41.0540  -10.5490   21.0380 N.3    34  LYS34      -0.1314
     41  N         40.6030   -1.0460   24.5570 N.3    52  TYR52      -0.1241
     42  CA        40.0050   -1.3710   25.8320 C.3    52  TYR52       0.1605
     43  C         40.2090   -0.2440   26.8410 C.2    52  TYR52       0.2264
     44  O         39.2690    0.1240   27.5510 O.2    52  TYR52      -0.2867
     45  CB        40.5320   -2.6930   26.3830 C.3    52  TYR52       0.0534
     46  CG        39.7120   -3.9120   26.0110 C.ar   52  TYR52      -0.0201
     47  CD1       40.2710   -4.9770   25.2840 C.ar   52  TYR52      -0.0009
     48  CD2       38.3870   -4.0230   26.4290 C.ar   52  TYR52      -0.0009
     49  CE1       39.5090   -6.1380   24.9890 C.ar   52  TYR52       0.0417
     50  CE2       37.6070   -5.1730   26.1170 C.ar   52  TYR52       0.0417
     51  CZ        38.1640   -6.2030   25.3840 C.ar   52  TYR52       0.1957
     52  OH        37.4190   -7.3140   25.0990 O.3    52  TYR52      -0.2866
     53  N         42.6750   -9.9820   30.9920 N.3    78  LEU78      -0.1231
     54  CA        41.3910   -9.3570   31.1330 C.3    78  LEU78       0.1693
     55  C         40.4660  -10.2640   31.8930 C.2    78  LEU78       0.2592
     56  O         40.8320  -11.3710   32.2980 O.2    78  LEU78      -0.2718
     57  CB        40.8110   -8.9610   29.7550 C.3    78  LEU78       0.0284
     58  CG        40.4780   -9.9000   28.5840 C.3    78  LEU78       0.0019
     59  CD1       39.7230   -9.0840   27.5530 C.3    78  LEU78       0.0001
     60  CD2       41.6780  -10.5060   27.9300 C.3    78  LEU78       0.0001
     61  N         39.2570   -9.7660   32.1010 N.am   79  GLU79      -0.1966
     62  CA        38.2570  -10.4350   32.8860 C.3    79  GLU79       0.1733
     63  C         37.6950  -11.6490   32.1400 C.2    79  GLU79       0.2616
     64  O         37.3860  -11.5820   30.9510 O.2    79  GLU79      -0.2715
     65  CB        37.1430   -9.4490   33.2230 C.3    79  GLU79       0.0429
     66  CG        35.8310  -10.0620   33.6320 C.3    79  GLU79       0.1163
     67  CD        34.8710   -9.0120   34.1440 C.2    79  GLU79       0.3649
     68  OE1       34.9030   -7.8820   33.6080 O.co2  79  GLU79      -0.2457
     69  OE2       34.1020   -9.3270   35.0800 O.co2  79  GLU79      -0.2457
     70  N         37.6210  -12.7540   32.8700 N.am   80  LEU80      -0.1963
     71  CA        37.1790  -14.0310   32.3560 C.3    80  LEU80       0.1728
     72  C         35.6680  -13.9730   32.3310 C.2    80  LEU80       0.2616
     73  O         35.0220  -13.6370   33.3360 O.2    80  LEU80      -0.2715
     74  CB        37.6780  -15.1660   33.2660 C.3    80  LEU80       0.0311
     75  CG        37.3970  -16.6200   32.8310 C.3    80  LEU80       0.0022
     76  CD1       38.1130  -16.9260   31.4820 C.3    80  LEU80       0.0001
     77  CD2       37.7190  -17.6130   33.9380 C.3    80  LEU80       0.0001
     78  N         35.1060  -14.2580   31.1610 N.am   81  LEU81      -0.1963
     79  CA        33.6730  -14.1930   30.9450 C.3    81  LEU81       0.1728
     80  C         33.1630  -15.5890   30.6660 C.2    81  LEU81       0.2617
     81  O         33.9460  -16.5670   30.6430 O.2    81  LEU81      -0.2715
     82  CB        33.3450  -13.2210   29.8180 C.3    81  LEU81       0.0311
     83  CG        33.8340  -11.7990   30.1190 C.3    81  LEU81       0.0022
     84  CD1       33.8550  -10.9470   28.8450 C.3    81  LEU81       0.0001
     85  CD2       33.0380  -11.1230   31.2220 C.3    81  LEU81       0.0001
     86  N         31.8480  -15.7230   30.5430 N.am   82  GLY82      -0.1941
     87  CA        31.2720  -17.0310   30.2690 C.3    82  GLY82       0.1998
     88  C         31.0730  -17.3060   28.7820 C.2    82  GLY82       0.2480
     89  O         31.8590  -16.8490   27.9160 O.2    82  GLY82      -0.2729
     90  N         30.0110  -18.0700   28.4680 N.am   83  PRO83      -0.2726
     91  CA        29.7290  -18.3860   27.0790 C.3    83  PRO83       0.1402
     92  C         29.2950  -17.1760   26.2510 C.2    83  PRO83       0.2269
     93  O         28.7670  -16.1940   26.7620 O.2    83  PRO83      -0.2865
     94  CB        28.6280  -19.4520   27.1490 C.3    83  PRO83       0.0296
     95  CG        28.3150  -19.6690   28.5450 C.3    83  PRO83       0.0237
     96  CD        29.0500  -18.6870   29.3890 C.3    83  PRO83       0.0939
     97  N         27.3450  -19.6310   21.5850 N.3    87  ASP87      -0.1239
     98  CA        27.4490  -20.8760   22.3470 C.3    87  ASP87       0.1674
     99  C         26.0950  -21.0940   22.9760 C.2    87  ASP87       0.2266
    100  O         25.5700  -22.1850   22.9690 O.2    87  ASP87      -0.2867
    101  CB        28.4780  -20.8200   23.5020 C.3    87  ASP87       0.1410
    102  CG        29.9050  -20.6070   23.0580 C.2    87  ASP87       0.3668
    103  OD1       30.2970  -21.0710   21.9660 O.co2  87  ASP87      -0.2456
    104  OD2       30.6630  -20.0010   23.8580 O.co2  87  ASP87      -0.2456
    105  N         29.2720  -14.4440   18.7430 N.3   128  GLU128     -0.1231
    106  CA        30.5110  -14.9620   19.3420 C.3   128  GLU128      0.1699
    107  C         31.2700  -13.9410   20.1670 C.2   128  GLU128      0.2592
    108  O         32.1220  -14.3190   20.9770 O.2   128  GLU128     -0.2718
    109  CB        31.4580  -15.4880   18.2690 C.3   128  GLU128      0.0402
    110  CG        31.0110  -16.7660   17.5720 C.3   128  GLU128      0.1161
    111  CD        30.2240  -16.5430   16.2780 C.2   128  GLU128      0.3649
    112  OE1       29.7160  -15.4300   16.0270 O.co2 128  GLU128     -0.2457
    113  OE2       30.1110  -17.5180   15.5140 O.co2 128  GLU128     -0.2457
    114  N         30.9940  -12.6570   19.9200 N.am  129  ASN129     -0.1974
    115  CA        31.6650  -11.5480   20.5820 C.3   129  ASN129      0.1688
    116  C         30.8500  -10.9390   21.7030 C.2   129  ASN129      0.2292
    117  O         31.1890   -9.8540   22.1930 O.2   129  ASN129     -0.2864
    118  CB        32.0080  -10.4660   19.5520 C.3   129  ASN129      0.1181
    119  CG        33.2030  -10.8070   18.7380 C.2   129  ASN129      0.2629
    120  OD1       33.9310  -11.7420   19.0530 O.2   129  ASN129     -0.2716
    121  ND2       33.4450  -10.0390   17.6870 N.am  129  ASN129     -0.0877
    122  N         29.4030  -12.0270   25.2670 N.3   131  LEU131     -0.1245
    123  CA        29.6130  -13.0910   26.2600 C.3   131  LEU131      0.1561
    124  C         28.8360  -12.7390   27.5290 C.2   131  LEU131      0.2260
    125  O         28.7360  -11.5740   27.8980 O.2   131  LEU131     -0.2867
    126  CB        31.0950  -13.3110   26.5120 C.3   131  LEU131      0.0270
    127  CG        31.9580  -14.1190   25.5260 C.3   131  LEU131      0.0019
    128  CD1       31.9230  -13.6420   24.0640 C.3   131  LEU131      0.0001
    129  CD2       33.3750  -14.0640   26.0570 C.3   131  LEU131      0.0001
    130  N         33.0480   -8.1070   23.6120 N.3   146  ILE146     -0.1231
    131  CA        34.4990   -8.4070   23.6020 C.3   146  ILE146      0.1692
    132  C         35.0880   -8.2350   22.1930 C.2   146  ILE146      0.2592
    133  O         34.3660   -8.0360   21.2450 O.2   146  ILE146     -0.2718
    134  CB        34.8190   -9.8800   24.0860 C.3   146  ILE146      0.0266
    135  CG1       34.2290  -10.9210   23.0960 C.3   146  ILE146      0.0019
    136  CG2       34.3580  -10.0870   25.5740 C.3   146  ILE146      0.0020
    137  CD1       34.8930  -12.3090   23.1180 C.3   146  ILE146      0.0001
    138  N         36.4030   -8.3620   22.0960 N.am  147  ASP147     -0.1974
    139  CA        37.1640   -8.4050   20.8280 C.3   147  ASP147      0.1709
    140  C         37.1140   -7.0680   20.1350 C.2   147  ASP147      0.2293
    141  O         36.3310   -6.8590   19.2330 O.2   147  ASP147     -0.2864
    142  CB        36.7350   -9.5480   19.8900 C.3   147  ASP147      0.1436
    143  CG        37.7970   -9.8790   18.8220 C.2   147  ASP147      0.3671
    144  OD1       38.7060   -9.0580   18.5250 O.co2 147  ASP147     -0.2456
    145  OD2       37.7340  -10.9950   18.2680 O.co2 147  ASP147     -0.2456
    146  N         28.5000  -24.2310   29.5500 N.3   293  PRO293     -0.2102
    147  CA        29.9290  -24.5000   29.7220 C.3   293  PRO293      0.1504
    148  C         30.6330  -23.5200   30.6690 C.2   293  PRO293      0.2576
    149  O         30.0920  -22.4540   30.9890 O.2   293  PRO293     -0.2718
    150  CB        30.4930  -24.3930   28.2990 C.3   293  PRO293      0.0282
    151  CG        29.4930  -23.5960   27.5370 C.3   293  PRO293      0.0208
    152  CD        28.1630  -23.9050   28.1520 C.3   293  PRO293      0.0893
    153  N         31.8120  -23.9310   31.1480 N.am  294  THR294     -0.1940
    154  CA        32.6350  -23.1170   32.0350 C.3   294  THR294      0.2013
    155  C         34.0210  -22.9630   31.3990 C.2   294  THR294      0.2484
    156  O         34.5000  -23.8910   30.7110 O.2   294  THR294     -0.2729
    157  CB        32.7640  -23.7420   33.4410 C.3   294  THR294      0.1807
    158  OG1       33.3650  -25.0210   33.3080 O.3   294  THR294     -0.2208
    159  CG2       31.4230  -23.8510   34.1400 C.3   294  THR294      0.0379
    160  N         34.6600  -21.7860   31.5940 N.am  295  PRO295     -0.2726
    161  CA        36.0750  -21.6660   31.2340 C.3   295  PRO295      0.1402
    162  C         36.9220  -22.5120   32.1790 C.2   295  PRO295      0.2269
    163  O         37.6900  -23.3510   31.7110 O.2   295  PRO295     -0.2865
    164  CB        36.3770  -20.1830   31.4130 C.3   295  PRO295      0.0296
    165  CG        35.0980  -19.5220   31.7750 C.3   295  PRO295      0.0237
    166  CD        34.1150  -20.5360   32.1540 C.3   295  PRO295      0.0939
@<TRIPOS>BOND
     1   113   111   ar
     2   112   111   ar
     3   111   110    1
     4   110   109    1
     5   121   119   am
     6   145   143   ar
     7   109   106    1
     8    17    18    1
     9    17    14    1
    10   144   143   ar
    11   119   120    2
    12   119   118    1
    13   105   106    1
    14   143   142    1
    15    15    14    1
    16    15    16    2
    17   141   140    2
    18   106   107    1
    19    14    13    1
    20   118   115    1
    21   142   139    1
    22   114   107   am
    23   114   115    1
    24   140   139    1
    25   107   108    2
    26    13    11   am
    27   115   116    1
    28   139   138    1
    29    40    39    1
    30   133   132    2
    31    39    38    1
    32    97    98    1
    33   116   117    2
    34    11    12    2
    35    11    10    1
    36   103   102   ar
    37   138   132   am
    38   132   131    1
    39    98    99    1
    40    98   101    1
    41    10     9    1
    42    38    37    1
    43   100    99    2
    44   102   101    1
    45   102   104   ar
    46   135   137    1
    47   135   134    1
    48    19    20    1
    49    37    36    1
    50   131   130    1
    51   131   134    1
    52   128   127    1
    53   134   136    1
    54     9     3   am
    55    41    42    1
    56    23    20    1
    57    23    24    1
    58    20    21    1
    59    36    33    1
    60     4     3    2
    61    34    33    1
    62    34    35    2
    63    49    47   ar
    64    49    51   ar
    65     3     2    1
    66    52    51    1
    67    33    32    1
    68   122   123    1
    69    47    46   ar
    70    51    50   ar
    71    22    21    2
    72   127   129    1
    73   127   126    1
    74    26    24    1
    75    42    45    1
    76    42    43    1
    77    24    25    1
    78    46    45    1
    79    46    48   ar
    80    50    48   ar
    81    92    93    2
    82    92    91    1
    83   123   126    1
    84   123   124    1
    85     1     2    1
    86     2     5    1
    87    43    44    2
    88    91    94    1
    89    91    90    1
    90    94    95    1
    91   124   125    2
    92   151   152    1
    93   151   150    1
    94    59    58    1
    95     6     5    1
    96     6     8    1
    97     5     7    1
    98    89    88    2
    99    60    58    1
   100   152   146    1
   101   150   147    1
   102    90    88   am
   103    90    96    1
   104    95    96    1
   105    58    57    1
   106    88    87    1
   107    84    83    1
   108   146   147    1
   109    31    28    1
   110   147   148    1
   111    57    54    1
   112    82    83    1
   113    82    79    1
   114    83    85    1
   115    29    30    2
   116    29    28    1
   117    87    86    1
   118    86    80   am
   119    28    27    1
   120    81    80    2
   121    80    79    1
   122   148   149    2
   123   148   153   am
   124   156   155    2
   125    79    78    1
   126    64    63    2
   127    53    54    1
   128    54    55    1
   129   153   154    1
   130    78    72   am
   131   161   164    1
   132   161   160    1
   133   161   162    1
   134   155   160   am
   135   155   154    1
   136   164   165    1
   137    76    75    1
   138   160   166    1
   139   163   162    2
   140   165   166    1
   141    55    61   am
   142    55    56    2
   143   154   157    1
   144    61    62    1
   145    63    70   am
   146    63    62    1
   147    72    71    1
   148    72    73    2
   149    71    70    1
   150    71    74    1
   151    75    74    1
   152    75    77    1
   153    62    65    1
   154    65    66    1
   155   158   157    1
   156   157   159    1
   157    68    67   ar
   158    66    67    1
   159    67    69   ar
