@<TRIPOS>MOLECULE
tmp/2izuA00.pdb
 171 164 0 0 0
SMALL
GASTEIGER

@<TRIPOS>ATOM
      1  N        -40.6870   25.4150  -26.2100 N.3    14  ILE14      -0.1231
      2  CA       -40.0410   24.0970  -26.2560 C.3    14  ILE14       0.1692
      3  C        -39.3250   23.7620  -24.9460 C.2    14  ILE14       0.2593
      4  O        -38.7900   22.6730  -24.7950 O.2    14  ILE14      -0.2718
      5  CB       -39.0930   23.9350  -27.5000 C.3    14  ILE14       0.0266
      6  CG1      -37.9790   24.9820  -27.5190 C.3    14  ILE14       0.0019
      7  CG2      -39.9180   23.9750  -28.8010 C.3    14  ILE14       0.0020
      8  CD1      -36.8870   24.7170  -28.5840 C.3    14  ILE14       0.0001
      9  N        -39.3690   24.6740  -23.9810 N.am   15  GLY15      -0.1942
     10  CA       -38.7310   24.4490  -22.6920 C.3    15  GLY15       0.2014
     11  C        -38.7090   25.6940  -21.8260 C.2    15  GLY15       0.2639
     12  O        -39.0960   26.7740  -22.2610 O.2    15  GLY15      -0.2714
     13  N        -38.2640   25.5350  -20.5870 N.am   16  CYS16      -0.1967
     14  CA       -38.0830   26.6580  -19.6640 C.3    16  CYS16       0.1712
     15  C        -36.6380   26.7030  -19.2250 C.2    16  CYS16       0.2296
     16  O        -36.1430   25.7100  -18.6960 O.2    16  CYS16      -0.2864
     17  CB       -38.9840   26.5010  -18.4390 C.3    16  CYS16       0.0983
     18  SG       -40.6460   27.1560  -18.6780 S.3    16  CYS16      -0.0798
     19  N        -37.8610   29.0390  -23.3700 N.3    20  LEU20      -0.1245
     20  CA       -37.2360   28.7850  -24.6660 C.3    20  LEU20       0.1561
     21  C        -38.3440   28.5270  -25.6880 C.2    20  LEU20       0.2260
     22  O        -39.2370   27.6850  -25.4620 O.2    20  LEU20      -0.2867
     23  CB       -36.2830   27.6020  -24.6060 C.3    20  LEU20       0.0270
     24  CG       -35.5020   27.3290  -25.9010 C.3    20  LEU20       0.0019
     25  CD1      -34.4570   28.4250  -26.2070 C.3    20  LEU20       0.0001
     26  CD2      -34.8410   25.9480  -25.8160 C.3    20  LEU20       0.0001
     27  N        -33.4840   28.8640  -32.1850 N.3    33  ALA33      -0.1245
     28  CA       -33.9540   28.8880  -30.7830 C.3    33  ALA33       0.1562
     29  C        -34.0720   30.3430  -30.3400 C.2    33  ALA33       0.2260
     30  O        -33.2210   31.1770  -30.6700 O.2    33  ALA33      -0.2867
     31  CB       -32.9910   28.1030  -29.8640 C.3    33  ALA33       0.0290
     32  N        -34.6030   32.4630  -26.8070 N.3    35  LYS35      -0.1245
     33  CA       -34.6840   32.5490  -25.3620 C.3    35  LYS35       0.1561
     34  C        -35.3310   33.8950  -25.0300 C.2    35  LYS35       0.2260
     35  O        -34.8890   34.9270  -25.5190 O.2    35  LYS35      -0.2867
     36  CB       -33.2780   32.4560  -24.7720 C.3    35  LYS35       0.0271
     37  CG       -33.1940   31.8770  -23.4050 C.3    35  LYS35       0.0035
     38  CD       -31.7500   31.4830  -23.0990 C.3    35  LYS35       0.0206
     39  CE       -31.6400   31.0240  -21.6790 C.3    35  LYS35       0.1093
     40  NZ       -30.2750   30.6090  -21.3440 N.3    35  LYS35      -0.1314
     41  N        -21.5980   34.9530  -24.7820 N.3    53  TYR53      -0.1241
     42  CA       -21.6390   34.3070  -26.0870 C.3    53  TYR53       0.1605
     43  C        -20.8070   35.0950  -27.0960 C.2    53  TYR53       0.2264
     44  O        -20.0550   34.5000  -27.8630 O.2    53  TYR53      -0.2867
     45  CB       -23.0780   34.1370  -26.6090 C.3    53  TYR53       0.0534
     46  CG       -23.7720   32.8370  -26.2340 C.ar   53  TYR53      -0.0201
     47  CD1      -24.9560   32.8410  -25.4980 C.ar   53  TYR53      -0.0009
     48  CD2      -23.2640   31.6070  -26.6370 C.ar   53  TYR53      -0.0009
     49  CE1      -25.5980   31.6760  -25.1690 C.ar   53  TYR53       0.0417
     50  CE2      -23.9000   30.4290  -26.3040 C.ar   53  TYR53       0.0417
     51  CZ       -25.0700   30.4640  -25.5810 C.ar   53  TYR53       0.1957
     52  OH       -25.7160   29.3140  -25.2420 O.3    53  TYR53      -0.2866
     53  N        -22.8090   27.4000  -29.5880 N.3    63  PRO63      -0.2116
     54  CA       -23.9980   27.8120  -30.3500 C.3    63  PRO63       0.1372
     55  C        -23.8060   29.1740  -31.0030 C.2    63  PRO63       0.2244
     56  O        -23.3190   30.0830  -30.3430 O.2    63  PRO63      -0.2868
     57  CB       -25.1020   27.8950  -29.2850 C.3    63  PRO63       0.0268
     58  CG       -24.6150   27.1540  -28.1300 C.3    63  PRO63       0.0207
     59  CD       -23.1310   27.0890  -28.1860 C.3    63  PRO63       0.0892
     60  N        -30.6840   32.3180  -31.1980 N.3    79  LEU79      -0.1231
     61  CA       -29.5140   31.4530  -31.3250 C.3    79  LEU79       0.1693
     62  C        -29.8130   30.1990  -32.1550 C.2    79  LEU79       0.2592
     63  O        -30.9740   29.8450  -32.4710 O.2    79  LEU79      -0.2718
     64  CB       -29.0200   30.9350  -29.9560 C.3    79  LEU79       0.0284
     65  CG       -29.0630   31.7250  -28.6630 C.3    79  LEU79       0.0019
     66  CD1      -30.4620   31.6860  -28.0870 C.3    79  LEU79       0.0001
     67  CD2      -28.0470   31.1370  -27.6790 C.3    79  LEU79       0.0001
     68  N        -28.7230   29.5160  -32.4660 N.am   80  GLU80      -0.1966
     69  CA       -28.7440   28.2440  -33.1460 C.3    80  GLU80       0.1733
     70  C        -29.5640   27.2100  -32.3520 C.2    80  GLU80       0.2616
     71  O        -29.3860   27.0410  -31.1350 O.2    80  GLU80      -0.2715
     72  CB       -27.3090   27.7510  -33.3250 C.3    80  GLU80       0.0429
     73  CG       -27.1730   26.5520  -34.2170 C.3    80  GLU80       0.1163
     74  CD       -25.7100   26.1560  -34.4040 C.2    80  GLU80       0.3649
     75  OE1      -24.8290   26.7450  -33.7330 O.co2  80  GLU80      -0.2457
     76  OE2      -25.4520   25.2660  -35.2250 O.co2  80  GLU80      -0.2457
     77  N        -30.4670   26.5510  -33.0670 N.am   81  LEU81      -0.1963
     78  CA       -31.3190   25.5030  -32.5310 C.3    81  LEU81       0.1728
     79  C        -30.5410   24.2010  -32.4950 C.2    81  LEU81       0.2616
     80  O        -29.9370   23.7810  -33.5070 O.2    81  LEU81      -0.2715
     81  CB       -32.5920   25.3440  -33.3810 C.3    81  LEU81       0.0311
     82  CG       -33.6360   24.3080  -32.9300 C.3    81  LEU81       0.0022
     83  CD1      -34.2260   24.6770  -31.5610 C.3    81  LEU81       0.0001
     84  CD2      -34.7420   24.1300  -33.9890 C.3    81  LEU81       0.0001
     85  N        -30.5800   23.5540  -31.3380 N.am   82  LEU82      -0.1963
     86  CA       -29.8210   22.3370  -31.1070 C.3    82  LEU82       0.1728
     87  C        -30.7640   21.2000  -30.7310 C.2    82  LEU82       0.2617
     88  O        -31.9710   21.4010  -30.5830 O.2    82  LEU82      -0.2715
     89  CB       -28.7780   22.5680  -30.0130 C.3    82  LEU82       0.0311
     90  CG       -27.7490   23.6580  -30.2990 C.3    82  LEU82       0.0022
     91  CD1      -26.8780   23.8830  -29.0600 C.3    82  LEU82       0.0001
     92  CD2      -26.9060   23.3680  -31.5540 C.3    82  LEU82       0.0001
     93  N        -30.2090   19.9940  -30.6420 N.am   83  GLY83      -0.1941
     94  CA       -30.9870   18.8010  -30.3650 C.3    83  GLY83       0.1998
     95  C        -31.0800   18.4960  -28.8880 C.2    83  GLY83       0.2481
     96  O        -30.8840   19.3860  -28.0460 O.2    83  GLY83      -0.2729
     97  N        -31.4020   17.2300  -28.5520 N.am   84  PRO84      -0.2715
     98  CA       -31.5140   16.8420  -27.1410 C.3    84  PRO84       0.1536
     99  C        -30.2180   16.9650  -26.3230 C.2    84  PRO84       0.2599
    100  O        -29.1090   16.9040  -26.8680 O.2    84  PRO84      -0.2715
    101  CB       -31.9630   15.3740  -27.2100 C.3    84  PRO84       0.0310
    102  CG       -31.6450   14.9260  -28.5860 C.3    84  PRO84       0.0237
    103  CD       -31.7560   16.1230  -29.4630 C.3    84  PRO84       0.0939
    104  N        -30.3840   17.0960  -25.0120 N.am   85  SER85      -0.1950
    105  CA       -29.2600   17.1840  -24.0950 C.3    85  SER85       0.1924
    106  C        -28.7250   15.8090  -23.7400 C.2    85  SER85       0.2314
    107  O        -29.3730   14.7870  -23.9950 O.2    85  SER85      -0.2863
    108  CB       -29.6500   17.9320  -22.8120 C.3    85  SER85       0.2116
    109  OG       -30.3600   17.0920  -21.8920 O.3    85  SER85      -0.2180
    110  N        -31.2510   13.9930  -21.5230 N.3    88  ASP88      -0.1239
    111  CA       -32.2800   13.3980  -22.3750 C.3    88  ASP88       0.1674
    112  C        -31.7860   12.1010  -23.0050 C.2    88  ASP88       0.2266
    113  O        -32.4860   11.0890  -23.0000 O.2    88  ASP88      -0.2867
    114  CB       -32.6950   14.3250  -23.5300 C.3    88  ASP88       0.1410
    115  CG       -33.3430   15.6030  -23.0680 C.2    88  ASP88       0.3668
    116  OD1      -33.9830   15.6280  -22.0060 O.co2  88  ASP88      -0.2456
    117  OD2      -33.2040   16.6060  -23.7940 O.co2  88  ASP88      -0.2456
    118  N        -27.6580   18.4740  -18.6810 N.3   129  GLU129     -0.1231
    119  CA       -28.6830   19.2610  -19.3610 C.3   129  GLU129      0.1699
    120  C        -28.1360   20.4200  -20.2040 C.2   129  GLU129      0.2592
    121  O        -28.8770   20.9800  -21.0210 O.2   129  GLU129     -0.2718
    122  CB       -29.7070   19.8090  -18.3400 C.3   129  GLU129      0.0402
    123  CG       -30.5870   18.7560  -17.6500 C.3   129  GLU129      0.1161
    124  CD       -29.9310   18.0770  -16.4290 C.2   129  GLU129      0.3649
    125  OE1      -30.6150   17.2920  -15.7630 O.co2 129  GLU129     -0.2457
    126  OE2      -28.7400   18.3040  -16.1480 O.co2 129  GLU129     -0.2457
    127  N        -26.8660   20.8030  -19.9800 N.am  130  ASN130     -0.1974
    128  CA       -26.2290   21.9420  -20.6470 C.3   130  ASN130      0.1688
    129  C        -25.2910   21.5460  -21.7960 C.2   130  ASN130      0.2292
    130  O        -24.5910   22.3800  -22.3710 O.2   130  ASN130     -0.2864
    131  CB       -25.4770   22.7960  -19.6230 C.3   130  ASN130      0.1181
    132  CG       -26.3940   23.7180  -18.8410 C.2   130  ASN130      0.2629
    133  OD1      -27.5760   23.8360  -19.1560 O.2   130  ASN130     -0.2716
    134  ND2      -25.8510   24.3800  -17.7980 N.am  130  ASN130     -0.0877
    135  N        -25.5820   19.6330  -25.4070 N.3   132  LEU132     -0.1245
    136  CA       -26.5900   19.2420  -26.3970 C.3   132  LEU132      0.1561
    137  C        -25.9500   18.7720  -27.6970 C.2   132  LEU132      0.2260
    138  O        -24.9890   19.3660  -28.1790 O.2   132  LEU132     -0.2867
    139  CB       -27.5340   20.4290  -26.6830 C.3   132  LEU132      0.0270
    140  CG       -28.6500   20.7790  -25.6840 C.3   132  LEU132      0.0019
    141  CD1      -28.0870   21.0650  -24.2770 C.3   132  LEU132      0.0001
    142  CD2      -29.4860   21.9560  -26.2200 C.3   132  LEU132      0.0001
    143  N        -24.0680   24.9330  -23.7220 N.3   147  ILE147     -0.1245
    144  CA       -25.0410   26.0220  -23.6880 C.3   147  ILE147      0.1561
    145  C        -25.1160   26.6600  -22.3020 C.2   147  ILE147      0.2260
    146  O        -24.5840   26.1350  -21.3310 O.2   147  ILE147     -0.2867
    147  CB       -26.4520   25.5260  -24.1250 C.3   147  ILE147      0.0252
    148  CG1      -27.0730   24.5910  -23.0660 C.3   147  ILE147      0.0019
    149  CG2      -26.3950   24.7950  -25.4920 C.3   147  ILE147      0.0019
    150  CD1      -28.6250   24.4980  -23.1370 C.3   147  ILE147      0.0001
    151  N        -35.4890   12.5570  -29.8040 N.3   294  PRO294     -0.2102
    152  CA       -36.3730   13.7310  -29.7690 C.3   294  PRO294      0.1504
    153  C        -35.8300   14.8800  -30.6350 C.2   294  PRO294      0.2576
    154  O        -34.6270   14.9640  -30.8690 O.2   294  PRO294     -0.2718
    155  CB       -36.3700   14.1380  -28.2910 C.3   294  PRO294      0.0282
    156  CG       -35.8760   12.9820  -27.5500 C.3   294  PRO294      0.0208
    157  CD       -35.0280   12.1670  -28.4630 C.3   294  PRO294      0.0893
    158  N        -36.7250   15.7370  -31.1140 N.am  295  THR295     -0.1940
    159  CA       -36.3630   16.8580  -31.9730 C.3   295  THR295      0.2013
    160  C        -37.2410   18.0700  -31.6180 C.2   295  THR295      0.2484
    161  O        -38.3990   17.8970  -31.2310 O.2   295  THR295     -0.2729
    162  CB       -36.5210   16.4790  -33.4610 C.3   295  THR295      0.1807
    163  OG1      -36.0790   17.5640  -34.2860 O.3   295  THR295     -0.2208
    164  CG2      -37.9750   16.1390  -33.7760 C.3   295  THR295      0.0379
    165  N        -36.6790   19.2950  -31.6840 N.am  296  PRO296     -0.2726
    166  CA       -37.4870   20.4790  -31.3830 C.3   296  PRO296      0.1402
    167  C        -38.4760   20.9090  -32.4870 C.2   296  PRO296      0.2269
    168  O        -39.4410   21.6060  -32.1870 O.2   296  PRO296     -0.2865
    169  CB       -36.4340   21.5560  -31.1250 C.3   296  PRO296      0.0296
    170  CG       -35.2700   21.1390  -31.9080 C.3   296  PRO296      0.0237
    171  CD       -35.2760   19.6490  -31.9700 C.3   296  PRO296      0.0939
@<TRIPOS>BOND
     1    76    74   ar
     2    74    73    1
     3    74    75   ar
     4   163   162    1
     5    73    72    1
     6    84    82    1
     7   164   162    1
     8    80    79    2
     9   162   159    1
    10    81    82    1
    11    81    78    1
    12    72    69    1
    13    69    68    1
    14    69    70    1
    15    77    78    1
    16    77    70   am
    17    82    83    1
    18    78    79    1
    19    79    85   am
    20   167   168    2
    21   167   166    1
    22    63    62    2
    23    68    62   am
    24    70    71    2
    25    27    28    1
    26    62    61    1
    27   159   160    1
    28   159   158    1
    29   171   170    1
    30   171   165    1
    31   170   169    1
    32   165   160   am
    33   165   166    1
    34   160   161    2
    35    92    90    1
    36   166   169    1
    37    85    86    1
    38    61    60    1
    39    61    64    1
    40   158   153   am
    41    86    87    1
    42    86    89    1
    43    55    54    1
    44    55    56    2
    45   154   153    2
    46    28    29    1
    47    28    31    1
    48    87    93   am
    49    87    88    2
    50    30    29    2
    51    93    94    1
    52   153   152    1
    53    94    95    1
    54    54    53    1
    55    54    57    1
    56    90    89    1
    57    90    91    1
    58    64    65    1
    59   151   152    1
    60   151   157    1
    61   152   155    1
    62    53    59    1
    63   103   102    1
    64   103    97    1
    65    57    58    1
    66    95    97   am
    67    95    96    2
    68     7     5    1
    69    65    66    1
    70    65    67    1
    71   102   101    1
    72     8     6    1
    73    97    98    1
    74   157   156    1
    75   155   156    1
    76    59    58    1
    77   138   137    2
    78    44    43    2
    79   137   136    1
    80     6     5    1
    81     5     2    1
    82   101    98    1
    83    98    99    1
    84    43    42    1
    85   100    99    2
    86    32    33    1
    87   139   136    1
    88   139   140    1
    89    48    50   ar
    90    48    46   ar
    91    45    46    1
    92    45    42    1
    93   136   135    1
    94    99   104   am
    95    50    51   ar
    96     2     1    1
    97     2     3    1
    98    46    47   ar
    99   142   140    1
   100    25    24    1
   101    42    41    1
   102    24    26    1
   103    24    23    1
   104    21    22    2
   105    21    20    1
   106   140   141    1
   107    51    52    1
   108    51    49   ar
   109    35    34    2
   110    47    49   ar
   111   149   147    1
   112    33    34    1
   113    33    36    1
   114   104   105    1
   115     3     4    2
   116     3     9   am
   117    36    37    1
   118    20    23    1
   119    20    19    1
   120   147   144    1
   121   147   148    1
   122   105   106    1
   123   105   108    1
   124   107   106    2
   125     9    10    1
   126   117   115   ar
   127   143   144    1
   128   144   145    1
   129   114   115    1
   130   114   111    1
   131    37    38    1
   132   150   148    1
   133    38    39    1
   134   115   116   ar
   135   112   113    2
   136   112   111    1
   137   108   109    1
   138    10    11    1
   139   111   110    1
   140   130   129    2
   141   145   146    2
   142    12    11    2
   143    11    13   am
   144   129   128    1
   145    39    40    1
   146   121   120    2
   147   128   127    1
   148   128   131    1
   149    13    14    1
   150   120   127   am
   151   120   119    1
   152    14    15    1
   153    14    17    1
   154   131   132    1
   155   119   118    1
   156   119   122    1
   157    15    16    2
   158   133   132    2
   159   132   134   am
   160    18    17    1
   161   122   123    1
   162   123   124    1
   163   124   126   ar
   164   124   125   ar
