@<TRIPOS>MOLECULE
tmp/2j07A01.pdb
 201 194 0 0 0
SMALL
GASTEIGER

@<TRIPOS>ATOM
      1  N         46.2120   14.1410   19.1220 N.3     6  TRP6       -0.1227
      2  CA        46.5890   13.5710   20.4210 C.3     6  TRP6        0.1737
      3  C         45.5230   13.8670   21.4790 C.2     6  TRP6        0.2595
      4  O         45.2630   15.0620   21.8060 O.2     6  TRP6       -0.2718
      5  CB        47.9560   14.1640   20.8110 C.3     6  TRP6        0.0564
      6  CG        48.4280   13.8200   22.1720 C.ar    6  TRP6        0.0003
      7  CD1       48.0430   12.7470   22.9300 C.ar    6  TRP6        0.0946
      8  CD2       49.4760   14.4990   22.9020 C.ar    6  TRP6        0.0152
      9  NE1       48.7860   12.7400   24.1200 N.ar    6  TRP6       -0.2442
     10  CE2       49.6310   13.8190   24.1370 C.ar    6  TRP6        0.0810
     11  CE3       50.1750   15.7030   22.6970 C.ar    6  TRP6        0.0012
     12  CZ2       50.5120   14.2600   25.1430 C.ar    6  TRP6        0.0191
     13  CZ3       51.0900   16.1410   23.6950 C.ar    6  TRP6        0.0001
     14  CH2       51.2510   15.4120   24.9030 C.ar    6  TRP6        0.0015
     15  N         44.7720   12.8140   21.8270 N.am    7  HIS7       -0.1961
     16  CA        43.6830   12.8670   22.8110 C.3     7  HIS7        0.1787
     17  C         44.2730   12.7180   24.2080 C.2     7  HIS7        0.2620
     18  O         45.0780   11.8050   24.4560 O.2     7  HIS7       -0.2715
     19  CB        42.6830   11.6980   22.5780 C.3     7  HIS7        0.0785
     20  CG        41.8230   11.8440   21.3580 C.ar    7  HIS7        0.0821
     21  ND1       40.5470   12.3780   21.4040 N.ar    7  HIS7       -0.2267
     22  CD2       42.0200   11.4470   20.0660 C.ar    7  HIS7        0.1154
     23  CE1       39.9800   12.2550   20.2100 C.ar    7  HIS7        0.1986
     24  NE2       40.8720   11.7390   19.3670 N.ar    7  HIS7       -0.2212
     25  N         43.8700   13.6030   25.1270 N.am    8  ARG8       -0.1963
     26  CA        44.2350   13.4510   26.5120 C.3     8  ARG8        0.1729
     27  C         42.9440   13.2890   27.3260 C.2     8  ARG8        0.2616
     28  O         42.2810   12.2490   27.2160 O.2     8  ARG8       -0.2715
     29  CB        45.1620   14.6030   26.9720 C.3     8  ARG8        0.0348
     30  CG        46.5240   14.6180   26.1700 C.3     8  ARG8        0.0492
     31  CD        46.4830   15.5390   24.8960 C.3     8  ARG8        0.2205
     32  NE        46.3830   16.9760   25.2120 N.pl3   8  ARG8       -0.0865
     33  CZ        47.4170   17.7780   25.4690 C.cat   8  ARG8        0.5346
     34  NH1       48.6620   17.2830   25.4950 N.pl3   8  ARG8        0.1354
     35  NH2       47.2110   19.0790   25.6740 N.pl3   8  ARG8        0.1354
     36  N         42.5910   14.2780   28.1440 N.am    9  GLY9       -0.1955
     37  CA        41.3060   14.2300   28.8760 C.3     9  GLY9        0.1869
     38  C         40.2140   14.7320   27.9590 C.2     9  GLY9        0.2309
     39  O         39.4590   15.6760   28.2990 O.2     9  GLY9       -0.2863
     40  N         46.6620    8.2010   21.8020 N.3    32  VAL32      -0.1231
     41  CA        46.6210    8.3480   23.2450 C.3    32  VAL32       0.1692
     42  C         47.9660    7.8740   23.7970 C.2    32  VAL32       0.2592
     43  O         48.5120    6.8680   23.3430 O.2    32  VAL32      -0.2718
     44  CB        45.4480    7.5410   23.9200 C.3    32  VAL32       0.0266
     45  CG1       45.5830    7.5620   25.4890 C.3    32  VAL32       0.0020
     46  CG2       44.0590    8.1550   23.5230 C.3    32  VAL32       0.0020
     47  N         48.5200    8.6570   24.7210 N.am   33  VAL33      -0.1966
     48  CA        49.6950    8.2130   25.4680 C.3    33  VAL33       0.1727
     49  C         49.3130    7.8720   26.8970 C.2    33  VAL33       0.2616
     50  O         48.8340    8.7320   27.6680 O.2    33  VAL33      -0.2715
     51  CB        50.8760    9.2410   25.3780 C.3    33  VAL33       0.0290
     52  CG1       52.1350    8.7490   26.1710 C.3    33  VAL33       0.0023
     53  CG2       51.2670    9.4750   23.8770 C.3    33  VAL33       0.0023
     54  N         49.5660    6.6150   27.2550 N.am   34  LEU34      -0.1963
     55  CA        49.4190    6.1020   28.6320 C.3    34  LEU34       0.1728
     56  C         50.6250    6.5420   29.4630 C.2    34  LEU34       0.2616
     57  O         51.7230    6.0070   29.3180 O.2    34  LEU34      -0.2715
     58  CB        49.2870    4.5820   28.6300 C.3    34  LEU34       0.0311
     59  CG        48.1890    4.0660   27.6590 C.3    34  LEU34       0.0022
     60  CD1       48.1320    2.5370   27.7000 C.3    34  LEU34       0.0001
     61  CD2       46.7950    4.6740   27.9320 C.3    34  LEU34       0.0001
     62  N         50.4180    7.6370   30.1930 N.am   35  ASP35      -0.1971
     63  CA        51.5020    8.4480   30.7920 C.3    35  ASP35       0.1709
     64  C         51.5840    8.0810   32.2800 C.2    35  ASP35       0.2293
     65  O         50.5910    8.1900   33.0280 O.2    35  ASP35      -0.2864
     66  CB        51.1020    9.9170   30.5760 C.3    35  ASP35       0.1436
     67  CG        52.0300   10.9140   31.2130 C.2    35  ASP35       0.3671
     68  OD1       52.9590   10.5370   31.9680 O.co2  35  ASP35      -0.2456
     69  OD2       51.7870   12.1330   30.9560 O.co2  35  ASP35      -0.2456
     70  N         50.0300   10.2140   35.0620 N.3    38  ASN38      -0.1225
     71  CA        48.5850   10.1390   35.3470 C.3    38  ASN38       0.1785
     72  C         48.1560    8.7210   35.7440 C.2    38  ASN38       0.2597
     73  O         47.0840    8.5380   36.3110 O.2    38  ASN38      -0.2718
     74  CB        47.7660   10.5590   34.1160 C.3    38  ASN38       0.1169
     75  CG        48.2540   11.8470   33.4990 C.2    38  ASN38       0.2627
     76  OD1       48.3880   12.8590   34.1820 O.2    38  ASN38      -0.2716
     77  ND2       48.3750   11.8530   32.1870 N.am   38  ASN38      -0.0877
     78  N         48.9650    7.7140   35.4110 N.am   39  LEU39      -0.1980
     79  CA        48.5150    6.3190   35.5580 C.3    39  LEU39       0.1596
     80  C         49.0240    5.6240   36.8070 C.2    39  LEU39       0.2287
     81  O         48.6550    4.4640   37.0910 O.2    39  LEU39      -0.2864
     82  CB        48.8820    5.5000   34.3030 C.3    39  LEU39       0.0297
     83  CG        47.8450    5.5250   33.1860 C.3    39  LEU39       0.0022
     84  CD1       48.3330    4.6720   32.0290 C.3    39  LEU39       0.0001
     85  CD2       46.4220    5.0850   33.6250 C.3    39  LEU39       0.0001
     86  N         48.1030    5.6570   39.7680 N.3    41  THR41      -0.1218
     87  CA        46.9590    6.0530   40.6000 C.3    41  THR41       0.1862
     88  C         46.2530    4.7340   40.9310 C.2    41  THR41       0.2287
     89  O         46.8190    3.6590   40.6630 O.2    41  THR41      -0.2866
     90  CB        46.0260    7.0600   39.8420 C.3    41  THR41       0.1770
     91  OG1       44.9400    7.4700   40.6830 O.3    41  THR41      -0.2211
     92  CG2       45.4560    6.4520   38.5620 C.3    41  THR41       0.0375
     93  N         40.7160    3.9320   38.9190 N.3    45  ARG45      -0.1245
     94  CA        40.9150    5.0900   38.0300 C.3    45  ARG45       0.1563
     95  C         41.7550    4.7090   36.7910 C.2    45  ARG45       0.2260
     96  O         41.5340    5.2140   35.6700 O.2    45  ARG45      -0.2867
     97  CB        41.5820    6.2400   38.8090 C.3    45  ARG45       0.0307
     98  CG        40.6760    6.8230   39.9420 C.3    45  ARG45       0.0489
     99  CD        41.3670    7.9220   40.6980 C.3    45  ARG45       0.2205
    100  NE        41.3480    9.1030   39.8390 N.pl3  45  ARG45      -0.0865
    101  CZ        42.3340    9.9590   39.7660 C.cat  45  ARG45       0.5346
    102  NH1       43.4250    9.7440   40.4970 N.pl3  45  ARG45       0.1354
    103  NH2       42.2010   11.0630   39.0480 N.pl3  45  ARG45       0.1354
    104  N         39.1700    2.8840   34.6770 N.3    48  TRP48      -0.1227
    105  CA        38.1950    3.7870   34.0610 C.3    48  TRP48       0.1737
    106  C         38.8300    4.5100   32.8440 C.2    48  TRP48       0.2595
    107  O         38.1900    4.6560   31.7680 O.2    48  TRP48      -0.2718
    108  CB        37.6840    4.7860   35.0950 C.3    48  TRP48       0.0564
    109  CG        36.6600    5.7310   34.5670 C.ar   48  TRP48       0.0003
    110  CD1       36.6740    7.1020   34.6890 C.ar   48  TRP48       0.0946
    111  CD2       35.4340    5.3970   33.9120 C.ar   48  TRP48       0.0152
    112  NE1       35.5310    7.6400   34.1310 N.ar   48  TRP48      -0.2442
    113  CE2       34.7550    6.6170   33.6480 C.ar   48  TRP48       0.0810
    114  CE3       34.8090    4.1840   33.5680 C.ar   48  TRP48       0.0012
    115  CZ2       33.5520    6.6630   32.9550 C.ar   48  TRP48       0.0191
    116  CZ3       33.6360    4.2360   32.8330 C.ar   48  TRP48       0.0001
    117  CH2       33.0150    5.4520   32.5430 C.ar   48  TRP48       0.0015
    118  N         40.0550    5.0020   33.0200 N.am   49  PHE49      -0.1976
    119  CA        40.7350    5.6790   31.8860 C.3    49  PHE49       0.1639
    120  C         41.0000    4.6750   30.7320 C.2    49  PHE49       0.2290
    121  O         40.6490    4.9520   29.5950 O.2    49  PHE49      -0.2864
    122  CB        42.0360    6.3740   32.2960 C.3    49  PHE49       0.0560
    123  CG        42.6860    7.1690   31.1630 C.ar   49  PHE49      -0.0200
    124  CD1       42.2690    8.4790   30.8800 C.ar   49  PHE49      -0.0042
    125  CD2       43.7240    6.6130   30.4030 C.ar   49  PHE49      -0.0042
    126  CE1       42.8640    9.1910   29.8080 C.ar   49  PHE49      -0.0003
    127  CE2       44.3500    7.3510   29.3660 C.ar   49  PHE49      -0.0003
    128  CZ        43.8650    8.5730   29.0320 C.ar   49  PHE49      -0.0000
    129  N         44.0270   19.5800   22.4700 N.3    93  LEU93      -0.1245
    130  CA        43.3780   20.6620   23.2000 C.3    93  LEU93       0.1561
    131  C         44.3210   21.1640   24.2950 C.2    93  LEU93       0.2260
    132  O         44.8520   20.3700   25.1240 O.2    93  LEU93      -0.2867
    133  CB        42.0730   20.1490   23.8080 C.3    93  LEU93       0.0270
    134  CG        41.0960   19.5870   22.7370 C.3    93  LEU93       0.0019
    135  CD1       39.8340   19.0930   23.4160 C.3    93  LEU93       0.0001
    136  CD2       40.7500   20.7010   21.6960 C.3    93  LEU93       0.0001
    137  N         45.9200   22.3080   27.6800 N.3    95  SER95      -0.1217
    138  CA        45.7170   22.0130   29.1200 C.3    95  SER95       0.1889
    139  C         46.3540   23.1390   29.9510 C.2    95  SER95       0.2288
    140  O         47.5310   23.4260   29.7830 O.2    95  SER95      -0.2866
    141  CB        46.3920   20.6700   29.5030 C.3    95  SER95       0.2089
    142  OG        46.2130   20.3920   30.9040 O.3    95  SER95      -0.2183
    143  N         46.9260   23.2840   33.1490 N.3    97  THR97      -0.1218
    144  CA        47.4120   22.7950   34.4340 C.3    97  THR97       0.1862
    145  C         48.9530   22.8490   34.4730 C.2    97  THR97       0.2287
    146  O         49.6130   22.9180   33.4240 O.2    97  THR97      -0.2866
    147  CB        46.9530   21.3340   34.7040 C.3    97  THR97       0.1770
    148  OG1       47.5610   20.4610   33.7510 O.3    97  THR97      -0.2211
    149  CG2       45.4190   21.1890   34.6040 C.3    97  THR97       0.0375
    150  N         51.0750   20.5260   35.2060 N.3    99  TYR99      -0.1227
    151  CA        51.6190   19.3680   34.4770 C.3    99  TYR99       0.1736
    152  C         51.3230   19.4180   32.9500 C.2    99  TYR99       0.2596
    153  O         52.2230   19.1730   32.1120 O.2    99  TYR99      -0.2718
    154  CB        51.1780   18.0200   35.0870 C.3    99  TYR99       0.0548
    155  CG        51.7470   16.8590   34.2930 C.ar   99  TYR99      -0.0200
    156  CD1       53.1160   16.6260   34.2880 C.ar   99  TYR99      -0.0009
    157  CD2       50.9310   16.0730   33.4550 C.ar   99  TYR99      -0.0009
    158  CE1       53.6800   15.5980   33.4980 C.ar   99  TYR99       0.0417
    159  CE2       51.4910   15.0490   32.6550 C.ar   99  TYR99       0.0417
    160  CZ        52.8720   14.8690   32.6540 C.ar   99  TYR99       0.1957
    161  OH        53.4560   13.9190   31.8390 O.3    99  TYR99      -0.2866
    162  N         50.1130   19.8460   32.5990 N.am  100  GLY100     -0.1957
    163  CA        49.7450   20.0690   31.2100 C.3   100  GLY100      0.1869
    164  C         50.7230   21.0010   30.5320 C.2   100  GLY100      0.2309
    165  O         51.2960   20.6570   29.4960 O.2   100  GLY100     -0.2863
    166  N         54.3450   19.2730   30.4660 N.3   103  ARG103     -0.1245
    167  CA        54.4050   18.1490   29.5170 C.3   103  ARG103      0.1563
    168  C         54.3650   18.7020   28.0610 C.2   103  ARG103      0.2260
    169  O         55.1610   18.3070   27.1960 O.2   103  ARG103     -0.2867
    170  CB        53.1660   17.2420   29.7490 C.3   103  ARG103      0.0307
    171  CG        52.8710   16.2370   28.5800 C.3   103  ARG103      0.0489
    172  CD        51.4330   15.7130   28.7360 C.3   103  ARG103      0.2205
    173  NE        50.4550   16.7830   28.4110 N.pl3 103  ARG103     -0.0865
    174  CZ        49.1980   16.7960   28.8380 C.cat 103  ARG103      0.5346
    175  NH1       48.6930   15.7370   29.5030 N.pl3 103  ARG103      0.1354
    176  NH2       48.4380   17.8630   28.6040 N.pl3 103  ARG103      0.1354
    177  N         34.9010   14.0900   33.6460 N.3   216  ALA216     -0.1231
    178  CA        36.2780   14.1410   34.1750 C.3   216  ALA216      0.1694
    179  C         37.3050   13.7290   33.1220 C.2   216  ALA216      0.2591
    180  O         38.4280   14.2240   33.1340 O.2   216  ALA216     -0.2718
    181  CB        36.4050   13.2310   35.3920 C.3   216  ALA216      0.0304
    182  N         36.9500   12.7380   32.3050 N.am  217  LEU217     -0.1980
    183  CA        37.8130   12.2800   31.2250 C.3   217  LEU217      0.1596
    184  C         37.5310   12.9380   29.8460 C.2   217  LEU217      0.2287
    185  O         38.0800   12.4910   28.8340 O.2   217  LEU217     -0.2864
    186  CB        37.6970   10.7670   31.0750 C.3   217  LEU217      0.0297
    187  CG        38.0940    9.8900   32.2740 C.3   217  LEU217      0.0022
    188  CD1       38.1400    8.4020   31.8470 C.3   217  LEU217      0.0001
    189  CD2       39.4490   10.2970   32.8870 C.3   217  LEU217      0.0001
    190  N         35.9890    7.8050   40.6630 N.3   339  LEU339     -0.1245
    191  CA        36.1460    7.6940   39.1950 C.3   339  LEU339      0.1561
    192  C         36.2100    9.0400   38.5320 C.2   339  LEU339      0.2260
    193  O         36.9060    9.2060   37.5320 O.2   339  LEU339     -0.2867
    194  CB        34.9790    6.9020   38.5710 C.3   339  LEU339      0.0270
    195  CG        34.7150    5.5170   39.1830 C.3   339  LEU339      0.0019
    196  CD1       33.5620    4.8120   38.4300 C.3   339  LEU339      0.0001
    197  CD2       35.9540    4.6870   39.1300 C.3   339  LEU339      0.0001
    198  N         37.4160   11.5960   39.8210 N.3   341  GLY341     -0.1225
    199  CA        38.3890   12.3650   40.6330 C.3   341  GLY341      0.1811
    200  C         39.2050   13.3140   39.7820 C.2   341  GLY341      0.2280
    201  O         39.7180   12.9260   38.7400 O.2   341  GLY341     -0.2866
@<TRIPOS>BOND
     1     1     2    1
     2    24    22   ar
     3    24    23   ar
     4    22    20   ar
     5    23    21   ar
     6     2     5    1
     7     2     3    1
     8     5     6    1
     9    20    21   ar
    10    20    19    1
    11     3     4    2
    12     3    15   am
    13   136   134    1
    14    40    41    1
    15    15    16    1
    16     6     8   ar
    17     6     7   ar
    18   129   130    1
    19    19    16    1
    20    11     8   ar
    21    11    13   ar
    22   134   135    1
    23   134   133    1
    24    16    17    1
    25     8    10   ar
    26     7     9   ar
    27   130   133    1
    28   130   131    1
    29    41    42    1
    30    41    44    1
    31    43    42    2
    32    46    44    1
    33    13    14   ar
    34    42    47   am
    35    53    51    1
    36    44    45    1
    37     9    10   ar
    38    10    12   ar
    39    17    18    2
    40    17    25   am
    41   131   132    2
    42    47    48    1
    43    31    32    1
    44    31    30    1
    45    14    12   ar
    46    25    26    1
    47    32    33    2
    48    51    48    1
    49    51    52    1
    50    48    49    1
    51    33    34    1
    52    33    35    1
    53    30    29    1
    54    26    29    1
    55    26    27    1
    56    49    54   am
    57    49    50    2
    58   169   168    2
    59    28    27    2
    60    54    55    1
    61    27    36   am
    62    59    60    1
    63    59    61    1
    64    59    58    1
    65   137   138    1
    66    38    39    2
    67    38    37    1
    68   168   167    1
    69    36    37    1
    70   173   172    1
    71   173   174    2
    72   171   172    1
    73   171   170    1
    74   176   174    1
    75    58    55    1
    76    55    56    1
    77   185   184    2
    78   174   175    1
    79   128   127   ar
    80   128   126   ar
    81   138   141    1
    82   138   139    1
    83    57    56    2
    84   127   125   ar
    85    56    62   am
    86   165   164    2
    87   141   142    1
    88   167   170    1
    89   167   166    1
    90   121   120    2
    91   140   139    2
    92   126   124   ar
    93   184   183    1
    94    62    63    1
    95   125   123   ar
    96   164   163    1
    97    66    63    1
    98    66    67    1
    99   120   119    1
   100    63    64    1
   101   124   123   ar
   102    69    67   ar
   103   186   183    1
   104   186   187    1
   105   123   122    1
   106   163   162    1
   107    67    68   ar
   108   183   182    1
   109   107   106    2
   110   161   160    1
   111   188   187    1
   112   119   122    1
   113   119   118    1
   114    84    83    1
   115   153   152    2
   116    77    75   am
   117   187   189    1
   118    64    65    2
   119   182   179   am
   120   117   116   ar
   121   117   115   ar
   122   162   152   am
   123   160   159   ar
   124   160   158   ar
   125   159   157   ar
   126   116   114   ar
   127   106   118   am
   128   106   105    1
   129   152   151    1
   130   115   113   ar
   131   179   180    2
   132   179   178    1
   133   143   144    1
   134    83    85    1
   135    83    82    1
   136   146   145    2
   137   157   155   ar
   138   158   156   ar
   139    75    74    1
   140    75    76    2
   141   114   111   ar
   142   177   178    1
   143   113   111   ar
   144   113   112   ar
   145   148   147    1
   146   111   109   ar
   147   105   104    1
   148   105   108    1
   149    74    71    1
   150   112   110   ar
   151   178   181    1
   152   156   155   ar
   153   155   154    1
   154    82    79    1
   155   144   145    1
   156   144   147    1
   157   151   154    1
   158   151   150    1
   159   109   110   ar
   160   109   108    1
   161   149   147    1
   162    70    71    1
   163    71    72    1
   164    78    79    1
   165    78    72   am
   166    79    80    1
   167    96    95    2
   168    72    73    2
   169    95    94    1
   170    80    81    2
   171   193   192    2
   172    94    97    1
   173    94    93    1
   174   196   195    1
   175   192   191    1
   176    92    90    1
   177   194   195    1
   178   194   191    1
   179   201   200    2
   180    97    98    1
   181   103   101    1
   182   197   195    1
   183   191   190    1
   184   101   100    2
   185   101   102    1
   186    86    87    1
   187   200   199    1
   188   198   199    1
   189   100    99    1
   190    90    87    1
   191    90    91    1
   192    98    99    1
   193    87    88    1
   194    89    88    2
