@<TRIPOS>MOLECULE
tmp/2j08A01.pdb
 224 217 0 0 0
SMALL
GASTEIGER

@<TRIPOS>ATOM
      1  N         46.2700   14.0300   19.0170 N.3     6  TRP6       -0.1227
      2  CA        46.6140   13.5910   20.3300 C.3     6  TRP6        0.1737
      3  C         45.4460   13.8580   21.3410 C.2     6  TRP6        0.2595
      4  O         45.0950   15.0050   21.6670 O.2     6  TRP6       -0.2718
      5  CB        47.9640   14.2470   20.7070 C.3     6  TRP6        0.0564
      6  CG        48.5850   13.8810   22.0720 C.ar    6  TRP6        0.0003
      7  CD1       48.2890   12.7720   22.8720 C.ar    6  TRP6        0.0946
      8  CD2       49.4830   14.7110   22.8420 C.ar    6  TRP6        0.0152
      9  NE1       49.0190   12.8540   24.0680 N.ar    6  TRP6       -0.2442
     10  CE2       49.7790   14.0040   24.0540 C.ar    6  TRP6        0.0810
     11  CE3       50.2470   15.8320   22.5310 C.ar    6  TRP6        0.0012
     12  CZ2       50.7090   14.4800   25.0020 C.ar    6  TRP6        0.0191
     13  CZ3       51.1480   16.3720   23.5690 C.ar    6  TRP6        0.0001
     14  CH2       51.3470   15.6900   24.7600 C.ar    6  TRP6        0.0015
     15  N         44.7820   12.7690   21.7720 N.am    7  HIS7       -0.1961
     16  CA        43.6490   12.8590   22.7090 C.3     7  HIS7        0.1787
     17  C         44.2840   12.7150   24.0690 C.2     7  HIS7        0.2620
     18  O         44.9060   11.6980   24.3270 O.2     7  HIS7       -0.2715
     19  CB        42.6710   11.6940   22.5470 C.3     7  HIS7        0.0785
     20  CG        41.8550   11.7370   21.3030 C.ar    7  HIS7        0.0821
     21  ND1       40.5750   12.2530   21.2740 N.ar    7  HIS7       -0.2267
     22  CD2       42.1420   11.3500   20.0290 C.ar    7  HIS7        0.1154
     23  CE1       40.1310   12.2380   20.0260 C.ar    7  HIS7        0.1986
     24  NE2       41.0430   11.6500   19.2580 N.ar    7  HIS7       -0.2212
     25  N         44.0070   13.6480   24.9780 N.am    8  ARG8       -0.1963
     26  CA        44.3440   13.4340   26.3670 C.3     8  ARG8        0.1729
     27  C         43.0240   13.2190   27.1330 C.2     8  ARG8        0.2617
     28  O         42.3680   12.1810   26.9250 O.2     8  ARG8       -0.2715
     29  CB        45.1420   14.6040   26.9160 C.3     8  ARG8        0.0348
     30  CG        46.4650   14.7580   26.2690 C.3     8  ARG8        0.0492
     31  CD        46.4470   15.4730   24.8910 C.3     8  ARG8        0.2205
     32  NE        46.3590   16.9150   25.0780 N.pl3   8  ARG8       -0.0865
     33  CZ        47.3860   17.7280   25.3380 C.cat   8  ARG8        0.5346
     34  NH1       48.6410   17.2740   25.4100 N.pl3   8  ARG8        0.1354
     35  NH2       47.1390   18.9930   25.6710 N.pl3   8  ARG8        0.1354
     36  N         42.7020   14.0850   28.1140 N.am    9  GLY9       -0.1940
     37  CA        41.4310   13.9480   28.8200 C.3     9  GLY9        0.2014
     38  C         40.3290   14.5000   27.9090 C.2     9  GLY9        0.2638
     39  O         39.6870   15.5280   28.2120 O.2     9  GLY9       -0.2714
     40  N         40.1620   13.8610   26.7490 N.am   10  ASP10      -0.1971
     41  CA        39.1040   14.2270   25.8250 C.3    10  ASP10       0.1709
     42  C         38.8630   13.0640   24.9350 C.2    10  ASP10       0.2293
     43  O         39.2680   13.0520   23.7810 O.2    10  ASP10      -0.2864
     44  CB        39.4420   15.4700   25.0140 C.3    10  ASP10       0.1436
     45  CG        40.9390   15.6570   24.8220 C.2    10  ASP10       0.3671
     46  OD1       41.5650   16.4630   25.6010 O.co2  10  ASP10      -0.2456
     47  OD2       41.4400   15.0560   23.8360 O.co2  10  ASP10      -0.2456
     48  N         46.6850    8.1040   21.6930 N.3    32  VAL32      -0.1231
     49  CA        46.7790    8.2500   23.1070 C.3    32  VAL32       0.1692
     50  C         48.1210    7.7330   23.6410 C.2    32  VAL32       0.2592
     51  O         48.6340    6.6910   23.1900 O.2    32  VAL32      -0.2718
     52  CB        45.6530    7.4560   23.7770 C.3    32  VAL32       0.0266
     53  CG1       45.9430    7.3370   25.3330 C.3    32  VAL32       0.0020
     54  CG2       44.3200    8.0580   23.4640 C.3    32  VAL32       0.0020
     55  N         48.5850    8.3690   24.6990 N.am   33  VAL33      -0.1966
     56  CA        49.7770    7.9270   25.4180 C.3    33  VAL33       0.1727
     57  C         49.3340    7.6900   26.8500 C.2    33  VAL33       0.2616
     58  O         48.8220    8.6470   27.4720 O.2    33  VAL33      -0.2715
     59  CB        50.8410    9.0910   25.5700 C.3    33  VAL33       0.0290
     60  CG1       51.9610    8.6540   26.4920 C.3    33  VAL33       0.0023
     61  CG2       51.4170    9.5570   24.1920 C.3    33  VAL33       0.0023
     62  N         49.6190    6.4750   27.3700 N.am   34  LEU34      -0.1963
     63  CA        49.3580    6.0660   28.7400 C.3    34  LEU34       0.1728
     64  C         50.6030    6.5260   29.5230 C.2    34  LEU34       0.2616
     65  O         51.7300    6.0130   29.3700 O.2    34  LEU34      -0.2715
     66  CB        49.0980    4.5360   28.7920 C.3    34  LEU34       0.0311
     67  CG        48.1690    3.9820   27.6380 C.3    34  LEU34       0.0022
     68  CD1       47.8000    2.4950   27.7360 C.3    34  LEU34       0.0001
     69  CD2       46.8100    4.7590   27.4810 C.3    34  LEU34       0.0001
     70  N         50.4180    7.6130   30.2600 N.am   35  ASP35      -0.1971
     71  CA        51.4820    8.3780   30.8060 C.3    35  ASP35       0.1709
     72  C         51.6160    7.9960   32.2330 C.2    35  ASP35       0.2293
     73  O         50.6740    8.1900   33.0230 O.2    35  ASP35      -0.2864
     74  CB        51.0430    9.8400   30.7350 C.3    35  ASP35       0.1436
     75  CG        52.1140   10.8360   31.1980 C.2    35  ASP35       0.3671
     76  OD1       53.0230   10.5410   32.0600 O.co2  35  ASP35      -0.2456
     77  OD2       51.8170   12.0100   30.9660 O.co2  35  ASP35      -0.2456
     78  N         50.0050   10.1470   34.9450 N.3    38  ASN38      -0.1225
     79  CA        48.5380   10.1050   35.2660 C.3    38  ASN38       0.1785
     80  C         48.1670    8.7140   35.7670 C.2    38  ASN38       0.2597
     81  O         47.1070    8.5380   36.3210 O.2    38  ASN38      -0.2718
     82  CB        47.6660   10.4790   34.0320 C.3    38  ASN38       0.1169
     83  CG        48.0490   11.8240   33.4550 C.2    38  ASN38       0.2627
     84  OD1       48.3140   12.7370   34.1940 O.2    38  ASN38      -0.2716
     85  ND2       48.1940   11.9160   32.1530 N.am   38  ASN38      -0.0877
     86  N         48.9420    7.6750   35.4110 N.am   39  LEU39      -0.1980
     87  CA        48.4280    6.3460   35.6790 C.3    39  LEU39       0.1596
     88  C         49.0470    5.5940   36.8060 C.2    39  LEU39       0.2287
     89  O         48.7210    4.4320   36.9970 O.2    39  LEU39      -0.2864
     90  CB        48.3980    5.4570   34.4450 C.3    39  LEU39       0.0297
     91  CG        47.5820    5.7770   33.1940 C.3    39  LEU39       0.0022
     92  CD1       48.0560    4.8120   32.1450 C.3    39  LEU39       0.0001
     93  CD2       46.0240    5.7000   33.3710 C.3    39  LEU39       0.0001
     94  N         48.1860    5.5080   39.9170 N.3    41  THR41      -0.1218
     95  CA        47.0740    5.9500   40.7880 C.3    41  THR41       0.1862
     96  C         46.3050    4.6880   41.1420 C.2    41  THR41       0.2287
     97  O         46.8160    3.6130   40.9100 O.2    41  THR41      -0.2866
     98  CB        46.1550    6.9280   40.0350 C.3    41  THR41       0.1770
     99  OG1       45.1830    7.4210   40.9290 O.3    41  THR41      -0.2211
    100  CG2       45.4490    6.2740   38.8100 C.3    41  THR41       0.0375
    101  N         40.9390    3.8200   38.8280 N.3    45  ARG45      -0.1245
    102  CA        41.0350    4.9470   37.9480 C.3    45  ARG45       0.1563
    103  C         41.9010    4.5610   36.7560 C.2    45  ARG45       0.2260
    104  O         41.5880    4.9880   35.6620 O.2    45  ARG45      -0.2867
    105  CB        41.6520    6.1490   38.6490 C.3    45  ARG45       0.0307
    106  CG        40.9100    6.5580   39.8290 C.3    45  ARG45       0.0489
    107  CD        41.6860    7.5280   40.5850 C.3    45  ARG45       0.2205
    108  NE        41.3360    8.8220   40.1310 N.pl3  45  ARG45      -0.0865
    109  CZ        42.2210    9.7900   39.9890 C.cat  45  ARG45       0.5346
    110  NH1       43.4790    9.5080   40.2980 N.pl3  45  ARG45       0.1354
    111  NH2       41.8840   10.9860   39.4810 N.pl3  45  ARG45       0.1354
    112  N         39.2830    2.7690   34.5930 N.3    48  TRP48      -0.1227
    113  CA        38.3280    3.6800   34.0090 C.3    48  TRP48       0.1737
    114  C         38.9630    4.3890   32.8590 C.2    48  TRP48       0.2595
    115  O         38.3580    4.4780   31.7810 O.2    48  TRP48      -0.2718
    116  CB        37.8550    4.7570   35.0230 C.3    48  TRP48       0.0564
    117  CG        36.6860    5.7240   34.5040 C.ar   48  TRP48       0.0003
    118  CD1       36.6350    7.0660   34.6080 C.ar   48  TRP48       0.0946
    119  CD2       35.4410    5.3200   33.8790 C.ar   48  TRP48       0.0152
    120  NE1       35.4020    7.5410   34.1420 N.ar   48  TRP48      -0.2442
    121  CE2       34.6920    6.4870   33.6350 C.ar   48  TRP48       0.0810
    122  CE3       34.9430    4.0910   33.4200 C.ar   48  TRP48       0.0012
    123  CZ2       33.4920    6.4710   32.9540 C.ar   48  TRP48       0.0191
    124  CZ3       33.7180    4.0740   32.7980 C.ar   48  TRP48       0.0001
    125  CH2       33.0400    5.2720   32.4960 C.ar   48  TRP48       0.0015
    126  N         40.1740    4.9110   33.0650 N.am   49  PHE49      -0.1976
    127  CA        40.8570    5.5860   31.9290 C.3    49  PHE49       0.1639
    128  C         41.0910    4.5890   30.7700 C.2    49  PHE49       0.2290
    129  O         40.5760    4.7910   29.6500 O.2    49  PHE49      -0.2864
    130  CB        42.1050    6.4020   32.3520 C.3    49  PHE49       0.0560
    131  CG        42.7620    7.2110   31.2020 C.ar   49  PHE49      -0.0200
    132  CD1       42.2650    8.4630   30.8190 C.ar   49  PHE49      -0.0042
    133  CD2       43.8860    6.7040   30.5080 C.ar   49  PHE49      -0.0042
    134  CE1       42.8050    9.1270   29.7450 C.ar   49  PHE49      -0.0003
    135  CE2       44.3840    7.3290   29.3830 C.ar   49  PHE49      -0.0003
    136  CZ        43.9170    8.5590   29.0490 C.ar   49  PHE49      -0.0000
    137  N         55.0300   11.3140   27.4520 N.3    74  PRO74      -0.2116
    138  CA        54.5430   11.9960   26.2070 C.3    74  PRO74       0.1372
    139  C         55.6650   12.5800   25.2900 C.2    74  PRO74       0.2244
    140  O         55.5710   12.3730   24.0660 O.2    74  PRO74      -0.2868
    141  CB        53.6680   13.1460   26.7250 C.3    74  PRO74       0.0268
    142  CG        53.2200   12.6950   28.0700 C.3    74  PRO74       0.0207
    143  CD        54.4280   11.9260   28.6480 C.3    74  PRO74       0.0892
    144  N         44.1320   19.6860   22.5670 N.3    93  LEU93      -0.1245
    145  CA        43.3730   20.7250   23.2910 C.3    93  LEU93       0.1561
    146  C         44.2830   21.3250   24.3490 C.2    93  LEU93       0.2260
    147  O         45.0010   20.5790   25.0750 O.2    93  LEU93      -0.2867
    148  CB        42.1520   20.1050   23.9630 C.3    93  LEU93       0.0270
    149  CG        41.1650   19.5610   22.9050 C.3    93  LEU93       0.0019
    150  CD1       39.8770   18.9510   23.5690 C.3    93  LEU93       0.0001
    151  CD2       40.7700   20.5520   21.7370 C.3    93  LEU93       0.0001
    152  N         45.9560   22.7560   27.6590 N.3    95  SER95      -0.1217
    153  CA        45.7220   22.4080   29.0610 C.3    95  SER95       0.1889
    154  C         46.3070   23.5060   29.9030 C.2    95  SER95       0.2288
    155  O         47.4900   23.8770   29.7570 O.2    95  SER95      -0.2866
    156  CB        46.4250   21.0850   29.3990 C.3    95  SER95       0.2089
    157  OG        46.2960   20.7610   30.7730 O.3    95  SER95      -0.2183
    158  N         46.8010   23.5620   33.1820 N.3    97  THR97      -0.1218
    159  CA        47.3020   23.0590   34.4390 C.3    97  THR97       0.1862
    160  C         48.8150   22.9080   34.4730 C.2    97  THR97       0.2287
    161  O         49.5070   22.9320   33.4190 O.2    97  THR97      -0.2866
    162  CB        46.7390   21.6900   34.7060 C.3    97  THR97       0.1770
    163  OG1       47.4320   20.7560   33.8670 O.3    97  THR97      -0.2211
    164  CG2       45.2460   21.6890   34.4210 C.3    97  THR97       0.0375
    165  N         50.7950   20.6550   35.0830 N.3    99  TYR99      -0.1227
    166  CA        51.4600   19.5020   34.4420 C.3    99  TYR99       0.1736
    167  C         51.2510   19.5500   32.9370 C.2    99  TYR99       0.2596
    168  O         52.1960   19.2330   32.1750 O.2    99  TYR99      -0.2718
    169  CB        50.9900   18.1370   34.9710 C.3    99  TYR99       0.0548
    170  CG        51.6120   17.0090   34.1820 C.ar   99  TYR99      -0.0200
    171  CD1       52.9970   16.7600   34.2270 C.ar   99  TYR99      -0.0009
    172  CD2       50.8450   16.1900   33.3720 C.ar   99  TYR99      -0.0009
    173  CE1       53.6100   15.6470   33.4930 C.ar   99  TYR99       0.0417
    174  CE2       51.4240   15.1030   32.6660 C.ar   99  TYR99       0.0417
    175  CZ        52.8160   14.8680   32.6700 C.ar   99  TYR99       0.1957
    176  OH        53.3830   13.8230   31.8800 O.3    99  TYR99      -0.2866
    177  N         50.0090   19.8580   32.5290 N.am  100  GLY100     -0.1957
    178  CA        49.7000   20.2770   31.1960 C.3   100  GLY100      0.1869
    179  C         50.7470   21.1880   30.6140 C.2   100  GLY100      0.2309
    180  O         51.3780   20.8630   29.6320 O.2   100  GLY100     -0.2863
    181  N         54.3020   19.2780   30.4950 N.3   103  ARG103     -0.1245
    182  CA        54.4030   18.1900   29.4970 C.3   103  ARG103      0.1563
    183  C         54.3640   18.7960   28.0640 C.2   103  ARG103      0.2260
    184  O         55.2420   18.5090   27.2410 O.2   103  ARG103     -0.2867
    185  CB        53.2280   17.2040   29.7000 C.3   103  ARG103      0.0307
    186  CG        52.8680   16.4220   28.4590 C.3   103  ARG103      0.0489
    187  CD        51.4510   15.8280   28.5000 C.3   103  ARG103      0.2205
    188  NE        50.4580   16.8760   28.3130 N.pl3 103  ARG103     -0.0865
    189  CZ        49.2750   16.8850   28.9110 C.cat 103  ARG103      0.5346
    190  NH1       48.9200   15.8250   29.6050 N.pl3 103  ARG103      0.1354
    191  NH2       48.4450   17.9290   28.7960 N.pl3 103  ARG103      0.1354
    192  N         35.0190   13.8520   33.5400 N.3   216  ALA216     -0.1231
    193  CA        36.3770   13.8570   34.0500 C.3   216  ALA216      0.1694
    194  C         37.4280   13.4430   33.0110 C.2   216  ALA216      0.2591
    195  O         38.5540   13.9770   33.0060 O.2   216  ALA216     -0.2718
    196  CB        36.4400   12.9510   35.2280 C.3   216  ALA216      0.0304
    197  N         37.0780   12.4720   32.1480 N.am  217  LEU217     -0.1980
    198  CA        37.9420   12.0890   31.0470 C.3   217  LEU217      0.1596
    199  C         37.5700   12.8380   29.7580 C.2   217  LEU217      0.2287
    200  O         37.9830   12.4330   28.6580 O.2   217  LEU217     -0.2864
    201  CB        37.7910   10.6150   30.8070 C.3   217  LEU217      0.0297
    202  CG        38.1520    9.8370   32.0950 C.3   217  LEU217      0.0022
    203  CD1       38.0090    8.3480   31.8590 C.3   217  LEU217      0.0001
    204  CD2       39.6010   10.1020   32.6460 C.3   217  LEU217      0.0001
    205  N         35.9600    7.6100   40.6830 N.3   339  LEU339     -0.1245
    206  CA        36.2080    7.5280   39.2210 C.3   339  LEU339      0.1561
    207  C         36.3380    8.8970   38.5900 C.2   339  LEU339      0.2260
    208  O         36.9040    9.0340   37.5120 O.2   339  LEU339     -0.2867
    209  CB        35.1490    6.7150   38.4730 C.3   339  LEU339      0.0270
    210  CG        34.7870    5.3030   38.9360 C.3   339  LEU339      0.0019
    211  CD1       33.4390    4.7140   38.2610 C.3   339  LEU339      0.0001
    212  CD2       36.0010    4.4050   38.7730 C.3   339  LEU339      0.0001
    213  N         37.3690   11.5770   39.9860 N.3   341  GLY341     -0.1210
    214  CA        38.2970   12.3760   40.8040 C.3   341  GLY341      0.1956
    215  C         39.1300   13.2910   39.9320 C.2   341  GLY341      0.2611
    216  O         39.5240   12.9310   38.8370 O.2   341  GLY341     -0.2717
    217  N         39.1580   14.5630   40.2860 N.am  342  ASP342     -0.1973
    218  CA        39.6250   15.5730   39.3630 C.3   342  ASP342      0.1709
    219  C         40.2590   16.6010   40.2390 C.2   342  ASP342      0.2293
    220  O         39.6060   17.1570   41.1050 O.2   342  ASP342     -0.2864
    221  CB        38.4510   16.1760   38.6240 C.3   342  ASP342      0.1436
    222  CG        38.8440   17.3050   37.6810 C.2   342  ASP342      0.3671
    223  OD1       39.5100   18.2670   38.1120 O.co2 342  ASP342     -0.2456
    224  OD2       38.3470   17.2830   36.5440 O.co2 342  ASP342     -0.2456
@<TRIPOS>BOND
     1     1     2    1
     2    24    23   ar
     3    24    22   ar
     4    23    21   ar
     5    22    20   ar
     6     2     5    1
     7     2     3    1
     8     5     6    1
     9    21    20   ar
    10    20    19    1
    11     3     4    2
    12     3    15   am
    13    48    49    1
    14   151   149    1
    15    15    16    1
    16     6     8   ar
    17     6     7   ar
    18    11     8   ar
    19    11    13   ar
    20    19    16    1
    21   144   145    1
    22    16    17    1
    23     8    10   ar
    24     7     9   ar
    25   149   150    1
    26   149   148    1
    27    49    50    1
    28    49    52    1
    29    51    50    2
    30   145   148    1
    31   145   146    1
    32    54    52    1
    33    13    14   ar
    34    50    55   am
    35    52    53    1
    36    43    42    2
    37    47    45   ar
    38    10     9   ar
    39    10    12   ar
    40   140   139    2
    41    17    18    2
    42    17    25   am
    43    61    59    1
    44   146   147    2
    45    55    56    1
    46    14    12   ar
    47    45    44    1
    48    45    46   ar
    49    31    32    1
    50    31    30    1
    51    42    41    1
    52    25    26    1
    53    44    41    1
    54    32    33    2
    55   139   138    1
    56    33    34    1
    57    33    35    1
    58    56    59    1
    59    56    57    1
    60    59    60    1
    61    41    40    1
    62   138   141    1
    63   138   137    1
    64    30    29    1
    65    26    29    1
    66    26    27    1
    67   141   142    1
    68    40    38   am
    69    57    62   am
    70    57    58    2
    71    28    27    2
    72    27    36   am
    73   184   183    2
    74    62    63    1
    75   137   143    1
    76    69    67    1
    77    67    68    1
    78    67    66    1
    79   152   153    1
    80    38    39    2
    81    38    37    1
    82   183   182    1
    83   142   143    1
    84    36    37    1
    85   188   187    1
    86   188   189    2
    87   186   187    1
    88   186   185    1
    89   200   199    2
    90    63    66    1
    91    63    64    1
    92   191   189    1
    93   189   190    1
    94   136   135   ar
    95   136   134   ar
    96   153   156    1
    97   153   154    1
    98    65    64    2
    99   135   133   ar
   100   156   157    1
   101   182   185    1
   102   182   181    1
   103    64    70   am
   104   180   179    2
   105   129   128    2
   106   134   132   ar
   107   155   154    2
   108   199   198    1
   109    70    71    1
   110   133   131   ar
   111   179   178    1
   112    74    71    1
   113    74    75    1
   114   128   127    1
   115    71    72    1
   116   201   198    1
   117   201   202    1
   118   132   131   ar
   119    77    75   ar
   120   198   197    1
   121   178   177    1
   122    75    76   ar
   123   131   130    1
   124   115   114    2
   125   203   202    1
   126   176   175    1
   127   127   130    1
   128   127   126    1
   129   202   204    1
   130    92    91    1
   131   197   194   am
   132    85    83   am
   133   168   167    2
   134    72    73    2
   135   125   124   ar
   136   125   123   ar
   137   177   167   am
   138   174   175   ar
   139   174   172   ar
   140   175   173   ar
   141   124   122   ar
   142   114   126   am
   143   114   113    1
   144   167   166    1
   145   123   121   ar
   146   195   194    2
   147   194   193    1
   148   158   159    1
   149    91    93    1
   150    91    90    1
   151   172   170   ar
   152   161   160    2
   153   122   119   ar
   154    83    82    1
   155    83    84    2
   156   173   171   ar
   157   192   193    1
   158   121   119   ar
   159   121   120   ar
   160   163   162    1
   161   119   117   ar
   162   113   112    1
   163   113   116    1
   164    82    79    1
   165   193   196    1
   166   120   118   ar
   167   170   171   ar
   168   170   169    1
   169   164   162    1
   170   159   160    1
   171   159   162    1
   172   166   169    1
   173   166   165    1
   174    90    87    1
   175   117   118   ar
   176   117   116    1
   177    78    79    1
   178    79    80    1
   179    86    87    1
   180    86    80   am
   181   104   103    2
   182    87    88    1
   183    80    81    2
   184   224   222   ar
   185   103   102    1
   186    88    89    2
   187   208   207    2
   188   222   223   ar
   189   222   221    1
   190   102   105    1
   191   102   101    1
   192   211   210    1
   193   209   210    1
   194   209   206    1
   195   207   206    1
   196   221   218    1
   197   105   106    1
   198   212   210    1
   199   100    98    1
   200   216   215    2
   201   206   205    1
   202   218   219    1
   203   218   217    1
   204   111   109    1
   205   106   107    1
   206    94    95    1
   207   215   217   am
   208   215   214    1
   209   213   214    1
   210   109   108    2
   211   109   110    1
   212    98    95    1
   213    98    99    1
   214   108   107    1
   215   219   220    2
   216    95    96    1
   217    97    96    2
