@<TRIPOS>MOLECULE
tmp/2j09A01.pdb
 227 221 0 0 0
SMALL
GASTEIGER

@<TRIPOS>ATOM
      1  N         46.1730   14.1530   19.0150 N.3     6  TRP6       -0.1227
      2  CA        46.5630   13.6150   20.3020 C.3     6  TRP6        0.1737
      3  C         45.4760   13.9060   21.3640 C.2     6  TRP6        0.2595
      4  O         45.2050   15.0830   21.6850 O.2     6  TRP6       -0.2718
      5  CB        47.9370   14.2410   20.6430 C.3     6  TRP6        0.0564
      6  CG        48.4220   13.8820   22.0000 C.ar    6  TRP6        0.0003
      7  CD1       48.0700   12.7600   22.7610 C.ar    6  TRP6        0.0946
      8  CD2       49.4250   14.5830   22.7280 C.ar    6  TRP6        0.0152
      9  NE1       48.8230   12.7700   23.9640 N.ar    6  TRP6       -0.2442
     10  CE2       49.6160   13.8920   23.9700 C.ar    6  TRP6        0.0810
     11  CE3       50.0910   15.8080   22.5180 C.ar    6  TRP6        0.0012
     12  CZ2       50.4800   14.3620   24.9660 C.ar    6  TRP6        0.0191
     13  CZ3       50.9880   16.2570   23.5130 C.ar    6  TRP6        0.0001
     14  CH2       51.1450   15.5470   24.7250 C.ar    6  TRP6        0.0015
     15  N         44.7270   12.8530   21.7190 N.am    7  HIS7       -0.1961
     16  CA        43.6670   12.8790   22.7290 C.3     7  HIS7        0.1787
     17  C         44.2710   12.7440   24.1250 C.2     7  HIS7        0.2620
     18  O         45.0510   11.8100   24.3940 O.2     7  HIS7       -0.2715
     19  CB        42.6930   11.7010   22.5010 C.3     7  HIS7        0.0785
     20  CG        41.8280   11.8550   21.2770 C.ar    7  HIS7        0.0821
     21  ND1       40.5490   12.3650   21.3330 N.ar    7  HIS7       -0.2267
     22  CD2       42.0200   11.4600   19.9880 C.ar    7  HIS7        0.1154
     23  CE1       39.9600   12.2090   20.1540 C.ar    7  HIS7        0.1986
     24  NE2       40.8520   11.7130   19.3050 N.ar    7  HIS7       -0.2212
     25  N         43.8590   13.6290   25.0470 N.am    8  ARG8       -0.1963
     26  CA        44.3240   13.4740   26.4150 C.3     8  ARG8        0.1729
     27  C         43.0340   13.3010   27.2410 C.2     8  ARG8        0.2616
     28  O         42.3180   12.3030   27.0880 O.2     8  ARG8       -0.2715
     29  CB        45.2090   14.6830   26.8340 C.3     8  ARG8        0.0348
     30  CG        46.5330   14.7020   26.0320 C.3     8  ARG8        0.0492
     31  CD        46.4460   15.6150   24.7660 C.3     8  ARG8        0.2205
     32  NE        46.3760   17.0430   25.1150 N.pl3   8  ARG8       -0.0865
     33  CZ        47.4180   17.8190   25.3320 C.cat   8  ARG8        0.5346
     34  NH1       48.6580   17.2730   25.4140 N.pl3   8  ARG8        0.1354
     35  NH2       47.2060   19.1160   25.5690 N.pl3   8  ARG8        0.1354
     36  N         42.6660   14.3030   28.0240 N.am    9  GLY9       -0.1955
     37  CA        41.4160   14.1960   28.8030 C.3     9  GLY9        0.1869
     38  C         40.2290   14.6030   27.9470 C.2     9  GLY9        0.2309
     39  O         39.4990   15.5830   28.2620 O.2     9  GLY9       -0.2863
     40  N         46.6660    8.2100   21.7140 N.3    32  VAL32      -0.1231
     41  CA        46.5920    8.3750   23.1420 C.3    32  VAL32       0.1692
     42  C         47.9450    7.9000   23.6880 C.2    32  VAL32       0.2592
     43  O         48.4930    6.8890   23.2400 O.2    32  VAL32      -0.2718
     44  CB        45.4500    7.5480   23.7980 C.3    32  VAL32       0.0266
     45  CG1       45.5990    7.6120   25.3730 C.3    32  VAL32       0.0020
     46  CG2       44.0190    8.1740   23.4540 C.3    32  VAL32       0.0020
     47  N         48.5090    8.6750   24.6120 N.am   33  VAL33      -0.1966
     48  CA        49.6940    8.1910   25.3320 C.3    33  VAL33       0.1727
     49  C         49.2830    7.8740   26.7680 C.2    33  VAL33       0.2616
     50  O         48.7430    8.7480   27.4910 O.2    33  VAL33      -0.2715
     51  CB        50.8750    9.2500   25.3040 C.3    33  VAL33       0.0290
     52  CG1       52.1170    8.7430   26.1240 C.3    33  VAL33       0.0023
     53  CG2       51.2670    9.5460   23.8230 C.3    33  VAL33       0.0023
     54  N         49.5360    6.6260   27.1950 N.am   34  LEU34      -0.1963
     55  CA        49.2630    6.1850   28.5970 C.3    34  LEU34       0.1728
     56  C         50.4780    6.6610   29.4270 C.2    34  LEU34       0.2616
     57  O         51.6010    6.1480   29.2620 O.2    34  LEU34      -0.2715
     58  CB        49.1590    4.6450   28.6480 C.3    34  LEU34       0.0311
     59  CG        48.0980    4.0950   27.6560 C.3    34  LEU34       0.0022
     60  CD1       48.0580    2.5310   27.7170 C.3    34  LEU34       0.0001
     61  CD2       46.6970    4.7060   27.9120 C.3    34  LEU34       0.0001
     62  N         50.2680    7.7370   30.1770 N.am   35  ASP35      -0.1971
     63  CA        51.3400    8.5160   30.7680 C.3    35  ASP35       0.1709
     64  C         51.4150    8.1730   32.2500 C.2    35  ASP35       0.2293
     65  O         50.4320    8.3380   32.9960 O.2    35  ASP35      -0.2864
     66  CB        50.9940    9.9860   30.5080 C.3    35  ASP35       0.1436
     67  CG        51.9040   10.9620   31.2200 C.2    35  ASP35       0.3671
     68  OD1       52.8290   10.5610   31.9660 O.co2  35  ASP35      -0.2456
     69  OD2       51.7230   12.1680   30.9560 O.co2  35  ASP35      -0.2456
     70  N         52.5670    9.7070   34.6740 N.3    37  ASN37      -0.1225
     71  CA        52.2450   10.8290   35.5580 C.3    37  ASN37       0.1785
     72  C         50.7740   10.8730   35.9130 C.2    37  ASN37       0.2597
     73  O         50.3800   11.3890   36.9820 O.2    37  ASN37      -0.2718
     74  CB        52.6540   12.1660   34.9110 C.3    37  ASN37       0.1169
     75  CG        54.1540   12.3590   34.9520 C.2    37  ASN37       0.2627
     76  OD1       54.6960   12.4240   36.0440 O.2    37  ASN37      -0.2716
     77  ND2       54.8440   12.1380   33.8070 N.am   37  ASN37      -0.0877
     78  N         49.9440   10.3380   35.0260 N.am   38  ASN38      -0.1960
     79  CA        48.4920   10.2870   35.2980 C.3    38  ASN38       0.1819
     80  C         48.0420    8.9050   35.7940 C.2    38  ASN38       0.2621
     81  O         46.9950    8.7880   36.4270 O.2    38  ASN38      -0.2715
     82  CB        47.7230   10.6300   34.0270 C.3    38  ASN38       0.1195
     83  CG        48.1740   11.9400   33.4210 C.2    38  ASN38       0.2630
     84  OD1       48.2680   12.9410   34.1120 O.2    38  ASN38      -0.2716
     85  ND2       48.2670   11.9720   32.1070 N.am   38  ASN38      -0.0877
     86  N         48.7510    7.8520   35.3880 N.am   39  LEU39      -0.1977
     87  CA        48.2150    6.4630   35.5410 C.3    39  LEU39       0.1596
     88  C         48.7520    5.7710   36.7740 C.2    39  LEU39       0.2287
     89  O         48.3770    4.6200   37.0760 O.2    39  LEU39      -0.2864
     90  CB        48.5060    5.5990   34.2700 C.3    39  LEU39       0.0297
     91  CG        47.5290    5.9160   33.1190 C.3    39  LEU39       0.0022
     92  CD1       47.8640    5.1660   31.7990 C.3    39  LEU39       0.0001
     93  CD2       46.0000    5.7310   33.4910 C.3    39  LEU39       0.0001
     94  N         48.0510    5.6260   39.7410 N.3    41  THR41      -0.1218
     95  CA        46.9750    6.0080   40.6800 C.3    41  THR41       0.1862
     96  C         46.2170    4.7190   41.0140 C.2    41  THR41       0.2287
     97  O         46.7390    3.6360   40.7520 O.2    41  THR41      -0.2866
     98  CB        46.0360    7.0870   40.0720 C.3    41  THR41       0.1770
     99  OG1       45.0510    7.4440   41.0420 O.3    41  THR41      -0.2211
    100  CG2       45.3090    6.5250   38.8020 C.3    41  THR41       0.0375
    101  N         40.6710    3.9570   39.0020 N.3    45  ARG45      -0.1245
    102  CA        40.8250    5.1390   38.1350 C.3    45  ARG45       0.1563
    103  C         41.6390    4.7750   36.8770 C.2    45  ARG45       0.2260
    104  O         41.3850    5.2800   35.7770 O.2    45  ARG45      -0.2867
    105  CB        41.4720    6.3130   38.9180 C.3    45  ARG45       0.0307
    106  CG        40.5280    6.9130   40.0260 C.3    45  ARG45       0.0489
    107  CD        41.1950    8.0220   40.7950 C.3    45  ARG45       0.2205
    108  NE        41.2030    9.2210   39.9660 N.pl3  45  ARG45      -0.0865
    109  CZ        42.1970   10.0830   39.9450 C.cat  45  ARG45       0.5346
    110  NH1       43.2550    9.8330   40.6930 N.pl3  45  ARG45       0.1354
    111  NH2       42.0470   11.2710   39.3720 N.pl3  45  ARG45       0.1354
    112  N         39.1320    2.9180   34.7400 N.3    48  TRP48      -0.1227
    113  CA        38.1990    3.8330   34.1270 C.3    48  TRP48       0.1737
    114  C         38.8380    4.5610   32.9240 C.2    48  TRP48       0.2595
    115  O         38.2430    4.5850   31.7990 O.2    48  TRP48      -0.2718
    116  CB        37.6220    4.7870   35.1670 C.3    48  TRP48       0.0564
    117  CG        36.6160    5.7410   34.6180 C.ar   48  TRP48       0.0003
    118  CD1       36.6230    7.0980   34.7550 C.ar   48  TRP48       0.0946
    119  CD2       35.3920    5.4080   33.9420 C.ar   48  TRP48       0.0152
    120  NE1       35.5260    7.6480   34.1120 N.ar   48  TRP48      -0.2442
    121  CE2       34.7340    6.6300   33.6440 C.ar   48  TRP48       0.0810
    122  CE3       34.8170    4.2130   33.5160 C.ar   48  TRP48       0.0012
    123  CZ2       33.5530    6.6790   32.9350 C.ar   48  TRP48       0.0191
    124  CZ3       33.6400    4.2680   32.7920 C.ar   48  TRP48       0.0001
    125  CH2       33.0050    5.4820   32.5400 C.ar   48  TRP48       0.0015
    126  N         40.0790    5.0650   33.0900 N.am   49  PHE49      -0.1976
    127  CA        40.7450    5.7270   31.9240 C.3    49  PHE49       0.1639
    128  C         40.9960    4.7260   30.7830 C.2    49  PHE49       0.2290
    129  O         40.5900    4.9930   29.6570 O.2    49  PHE49      -0.2864
    130  CB        42.0580    6.4770   32.2980 C.3    49  PHE49       0.0560
    131  CG        42.6590    7.2570   31.1570 C.ar   49  PHE49      -0.0200
    132  CD1       42.2510    8.5770   30.8990 C.ar   49  PHE49      -0.0042
    133  CD2       43.6720    6.6990   30.3670 C.ar   49  PHE49      -0.0042
    134  CE1       42.7870    9.2490   29.7810 C.ar   49  PHE49      -0.0003
    135  CE2       44.2720    7.4260   29.3400 C.ar   49  PHE49      -0.0003
    136  CZ        43.7630    8.6270   28.9970 C.ar   49  PHE49      -0.0000
    137  N         55.0470   11.3900   27.4180 N.3    74  PRO74      -0.2116
    138  CA        54.5720   12.0090   26.1730 C.3    74  PRO74       0.1372
    139  C         55.6770   12.6170   25.3030 C.2    74  PRO74       0.2244
    140  O         55.5730   12.5730   24.0740 O.2    74  PRO74      -0.2868
    141  CB        53.6620   13.1320   26.6640 C.3    74  PRO74       0.0268
    142  CG        53.1100   12.6040   27.9980 C.3    74  PRO74       0.0207
    143  CD        54.3350   11.8820   28.6150 C.3    74  PRO74       0.0892
    144  N         45.9320   22.5400   27.4730 N.3    95  SER95      -0.1217
    145  CA        45.7890   22.2190   28.8970 C.3    95  SER95       0.1889
    146  C         46.4270   23.3590   29.6990 C.2    95  SER95       0.2288
    147  O         47.6020   23.7490   29.4450 O.2    95  SER95      -0.2866
    148  CB        46.5170   20.9340   29.2700 C.3    95  SER95       0.2089
    149  OG        46.4250   20.6990   30.6940 O.3    95  SER95      -0.2183
    150  N         46.7720   23.2910   33.1210 N.3    97  THR97      -0.1218
    151  CA        47.2570   22.7760   34.4130 C.3    97  THR97       0.1862
    152  C         48.7820   22.7830   34.4640 C.2    97  THR97       0.2287
    153  O         49.4470   22.8630   33.4380 O.2    97  THR97      -0.2866
    154  CB        46.7560   21.3530   34.7110 C.3    97  THR97       0.1770
    155  OG1       47.4170   20.4070   33.8550 O.3    97  THR97      -0.2211
    156  CG2       45.2490   21.2470   34.4720 C.3    97  THR97       0.0375
    157  N         50.8490   20.5110   35.2310 N.3    99  TYR99      -0.1227
    158  CA        51.4480   19.3660   34.5140 C.3    99  TYR99       0.1736
    159  C         51.2040   19.4300   32.9730 C.2    99  TYR99       0.2596
    160  O         52.1180   19.1870   32.1570 O.2    99  TYR99      -0.2718
    161  CB        51.0110   18.0040   35.0800 C.3    99  TYR99       0.0548
    162  CG        51.5770   16.8760   34.2450 C.ar   99  TYR99      -0.0200
    163  CD1       52.9350   16.6320   34.2600 C.ar   99  TYR99      -0.0009
    164  CD2       50.7390   16.0490   33.4440 C.ar   99  TYR99      -0.0009
    165  CE1       53.5170   15.6080   33.4650 C.ar   99  TYR99       0.0417
    166  CE2       51.3050   15.0390   32.6270 C.ar   99  TYR99       0.0417
    167  CZ        52.7100   14.8930   32.6020 C.ar   99  TYR99       0.1957
    168  OH        53.3300   13.9320   31.8310 O.3    99  TYR99      -0.2866
    169  N         49.9950   19.7840   32.5920 N.am  100  GLY100     -0.1957
    170  CA        49.6360   19.9390   31.1890 C.3   100  GLY100      0.1869
    171  C         50.5560   20.9010   30.4630 C.2   100  GLY100      0.2309
    172  O         51.0800   20.5650   29.3850 O.2   100  GLY100     -0.2863
    173  N         54.2120   19.2580   30.4810 N.3   103  ARG103     -0.1245
    174  CA        54.2770   18.1620   29.5020 C.3   103  ARG103      0.1563
    175  C         54.2600   18.7720   28.0540 C.2   103  ARG103      0.2260
    176  O         55.0480   18.3830   27.1870 O.2   103  ARG103     -0.2867
    177  CB        52.9890   17.3120   29.6890 C.3   103  ARG103      0.0307
    178  CG        52.7510   16.2530   28.5330 C.3   103  ARG103      0.0489
    179  CD        51.2990   15.7520   28.6380 C.3   103  ARG103      0.2205
    180  NE        50.3750   16.8430   28.3270 N.pl3 103  ARG103     -0.0865
    181  CZ        49.1040   16.9030   28.7450 C.cat 103  ARG103      0.5346
    182  NH1       48.5410   15.8650   29.4180 N.pl3 103  ARG103      0.1354
    183  NH2       48.3900   17.9880   28.4820 N.pl3 103  ARG103      0.1354
    184  N         34.8950   13.9790   33.7180 N.3   216  ALA216     -0.1231
    185  CA        36.2660   14.0180   34.2520 C.3   216  ALA216      0.1694
    186  C         37.2880   13.5860   33.2180 C.2   216  ALA216      0.2591
    187  O         38.4560   14.0250   33.2770 O.2   216  ALA216     -0.2718
    188  CB        36.3830   13.1470   35.4520 C.3   216  ALA216      0.0304
    189  N         36.8710   12.7120   32.2920 N.am  217  LEU217     -0.1980
    190  CA        37.7840   12.2590   31.2400 C.3   217  LEU217      0.1596
    191  C         37.5130   12.8790   29.8520 C.2   217  LEU217      0.2287
    192  O         38.0860   12.4400   28.8470 O.2   217  LEU217     -0.2864
    193  CB        37.7460   10.7530   31.1170 C.3   217  LEU217      0.0297
    194  CG        38.1350    9.8930   32.3290 C.3   217  LEU217      0.0022
    195  CD1       38.1370    8.4150   31.9110 C.3   217  LEU217      0.0001
    196  CD2       39.5030   10.2790   32.9170 C.3   217  LEU217      0.0001
    197  N         35.8970    7.7480   40.7270 N.3   339  LEU339     -0.1245
    198  CA        36.0390    7.6080   39.2650 C.3   339  LEU339      0.1561
    199  C         36.1430    8.9570   38.5860 C.2   339  LEU339      0.2260
    200  O         36.8100    9.1150   37.5390 O.2   339  LEU339     -0.2867
    201  CB        34.8150    6.8730   38.6890 C.3   339  LEU339      0.0270
    202  CG        34.5760    5.4450   39.2310 C.3   339  LEU339      0.0019
    203  CD1       33.4080    4.7290   38.4320 C.3   339  LEU339      0.0001
    204  CD2       35.8630    4.6140   39.2320 C.3   339  LEU339      0.0001
    205  N         37.2920   11.5430   39.8520 N.3   341  GLY341     -0.1210
    206  CA        38.2670   12.3040   40.6650 C.3   341  GLY341      0.1956
    207  C         39.0940   13.2330   39.7830 C.2   341  GLY341      0.2612
    208  O         39.5700   12.8330   38.7060 O.2   341  GLY341     -0.2717
    209  N         39.0190   14.5250   40.1090 N.am  342  ASP342     -0.1959
    210  CA        39.4700   15.5930   39.1840 C.3   342  ASP342      0.1840
    211  C         40.1380   16.6260   40.0990 C.2   342  ASP342      0.2621
    212  O         39.5130   17.1370   41.0210 O.2   342  ASP342     -0.2715
    213  CB        38.2490   16.2240   38.4740 C.3   342  ASP342      0.1450
    214  CG        38.6180   17.3800   37.5480 C.2   342  ASP342      0.3671
    215  OD1       39.4070   18.2790   37.9620 O.co2 342  ASP342     -0.2456
    216  OD2       38.0090   17.4500   36.4470 O.co2 342  ASP342     -0.2456
    217  N         41.4350   16.8290   39.9310 N.am  343  ARG343     -0.1977
    218  CA        42.1830   17.4720   41.0060 C.3   343  ARG343      0.1597
    219  C         41.6280   18.8710   41.3510 C.2   343  ARG343      0.2287
    220  O         41.4060   19.2010   42.5310 O.2   343  ARG343     -0.2864
    221  CB        43.6610   17.5490   40.6550 C.3   343  ARG343      0.0334
    222  CG        44.5220   17.9320   41.8570 C.3   343  ARG343      0.0492
    223  CD        45.9810   17.5800   41.6470 C.3   343  ARG343      0.2205
    224  NE        46.8680   18.2250   42.6260 N.pl3 343  ARG343     -0.0865
    225  CZ        47.6350   19.2820   42.3600 C.cat 343  ARG343      0.5346
    226  NH1       47.5670   19.8620   41.1690 N.pl3 343  ARG343      0.1354
    227  NH2       48.5240   19.7070   43.2560 N.pl3 343  ARG343      0.1354
@<TRIPOS>BOND
     1     1     2    1
     2    24    22   ar
     3    24    23   ar
     4    22    20   ar
     5    23    21   ar
     6     2     5    1
     7     2     3    1
     8     5     6    1
     9    20    21   ar
    10    20    19    1
    11     3     4    2
    12     3    15   am
    13    40    41    1
    14    15    16    1
    15     6     8   ar
    16     6     7   ar
    17    19    16    1
    18    11     8   ar
    19    11    13   ar
    20     8    10   ar
    21    16    17    1
    22     7     9   ar
    23    41    42    1
    24    41    44    1
    25    43    42    2
    26    46    44    1
    27    13    14   ar
    28    42    47   am
    29    44    45    1
    30    53    51    1
    31     9    10   ar
    32    10    12   ar
    33   140   139    2
    34    17    18    2
    35    17    25   am
    36    47    48    1
    37    14    12   ar
    38    31    32    1
    39    31    30    1
    40    25    26    1
    41    32    33    2
    42   139   138    1
    43    51    48    1
    44    51    52    1
    45    33    34    1
    46    33    35    1
    47    48    49    1
    48    30    29    1
    49   138   141    1
    50   138   137    1
    51    26    29    1
    52    26    27    1
    53   141   142    1
    54    49    54   am
    55    49    50    2
    56    28    27    2
    57   176   175    2
    58    54    55    1
    59    27    36   am
    60   137   143    1
    61   144   145    1
    62    59    60    1
    63    59    61    1
    64    59    58    1
    65    38    39    2
    66    38    37    1
    67   142   143    1
    68    36    37    1
    69   175   174    1
    70   180   179    1
    71   180   181    2
    72   183   181    1
    73   178   179    1
    74   178   177    1
    75    55    58    1
    76    55    56    1
    77   181   182    1
    78   192   191    2
    79   145   148    1
    80   145   146    1
    81   136   135   ar
    82   136   134   ar
    83    57    56    2
    84   148   149    1
    85   135   133   ar
    86   172   171    2
    87    56    62   am
    88   147   146    2
    89   174   177    1
    90   174   173    1
    91   129   128    2
    92   134   132   ar
    93   191   190    1
    94    62    63    1
    95   133   131   ar
    96   171   170    1
    97    66    63    1
    98    66    67    1
    99    63    64    1
   100   128   127    1
   101   132   131   ar
   102    69    67   ar
   103   193   190    1
   104   193   194    1
   105   131   130    1
   106   170   169    1
   107    67    68   ar
   108   190   189    1
   109   115   114    2
   110    92    91    1
   111   168   167    1
   112   195   194    1
   113   127   130    1
   114   127   126    1
   115    85    83   am
   116   160   159    2
   117    64    65    2
   118   189   186   am
   119   194   196    1
   120   125   124   ar
   121   125   123   ar
   122   169   159   am
   123   167   166   ar
   124   167   165   ar
   125   166   164   ar
   126   124   122   ar
   127   114   126   am
   128   114   113    1
   129   123   121   ar
   130   159   158    1
   131    91    93    1
   132    91    90    1
   133   150   151    1
   134   186   187    2
   135   186   185    1
   136    83    82    1
   137    83    84    2
   138   153   152    2
   139   164   162   ar
   140   165   163   ar
   141   122   119   ar
   142   121   119   ar
   143   121   120   ar
   144   184   185    1
   145    77    75   am
   146   155   154    1
   147   119   117   ar
   148    82    79    1
   149   120   118   ar
   150   113   112    1
   151   113   116    1
   152   162   163   ar
   153   162   161    1
   154   185   188    1
   155    90    87    1
   156   151   152    1
   157   151   154    1
   158   156   154    1
   159   158   161    1
   160   158   157    1
   161   117   118   ar
   162   117   116    1
   163    70    71    1
   164    74    75    1
   165    74    71    1
   166    75    76    2
   167    78    79    1
   168    78    72   am
   169    79    80    1
   170    86    87    1
   171    86    80   am
   172    87    88    1
   173    71    72    1
   174   104   103    2
   175    80    81    2
   176    72    73    2
   177   216   214   ar
   178    88    89    2
   179   103   102    1
   180   200   199    2
   181   214   215   ar
   182   214   213    1
   183   102   105    1
   184   102   101    1
   185   203   202    1
   186   213   210    1
   187   199   198    1
   188   201   202    1
   189   201   198    1
   190   208   207    2
   191   100    98    1
   192   105   106    1
   193   210   211    1
   194   210   209    1
   195   202   204    1
   196   198   197    1
   197   111   109    1
   198    94    95    1
   199   207   209   am
   200   207   206    1
   201   205   206    1
   202   217   211   am
   203   217   218    1
   204   109   108    2
   205   109   110    1
   206   108   107    1
   207   106   107    1
   208    98    95    1
   209    98    99    1
   210   211   212    2
   211   221   218    1
   212   221   222    1
   213    95    96    1
   214    97    96    2
   215   218   219    1
   216   226   225    1
   217   219   220    2
   218   223   222    1
   219   223   224    1
   220   225   224    2
   221   225   227    1
