@<TRIPOS>MOLECULE
tmp/2j0bA00.pdb
 96 91 0 0 0
SMALL
GASTEIGER

@<TRIPOS>ATOM
      1  N         22.8580   -0.7840   39.8990 N.3    12  LYS12      -0.1231
      2  CA        22.6270   -1.6680   41.0420 C.3    12  LYS12       0.1693
      3  C         23.9350   -1.9590   41.7660 C.2    12  LYS12       0.2593
      4  O         24.8950   -2.3720   41.1640 O.2    12  LYS12      -0.2718
      5  CB        21.9970   -2.9870   40.6090 C.3    12  LYS12       0.0285
      6  CG        21.6220   -3.8600   41.7350 C.3    12  LYS12       0.0035
      7  CD        21.4720   -5.3330   41.3360 C.3    12  LYS12       0.0206
      8  CE        20.5530   -5.5840   40.1720 C.3    12  LYS12       0.1093
      9  NZ        20.5250   -7.0900   39.8770 N.3    12  LYS12      -0.1314
     10  N         23.9610   -1.7670   43.0770 N.am   13  THR13      -0.1939
     11  CA        25.1240   -2.1620   43.8370 C.3    13  THR13       0.2028
     12  C         24.6750   -2.6550   45.1900 C.2    13  THR13       0.2642
     13  O         23.4860   -2.7870   45.4640 O.2    13  THR13      -0.2714
     14  CB        26.1720   -0.9960   43.9000 C.3    13  THR13       0.1808
     15  OG1       27.4540   -1.5150   44.2530 O.3    13  THR13      -0.2208
     16  CG2       25.7910    0.0670   44.9330 C.3    13  THR13       0.0379
     17  N         25.6600   -2.9880   46.0020 N.am   14  THR14      -0.1950
     18  CA        25.4530   -3.4740   47.2930 C.3    14  THR14       0.1897
     19  C         26.6390   -3.0210   48.1280 C.2    14  THR14       0.2313
     20  O         27.7260   -2.7820   47.6370 O.2    14  THR14      -0.2863
     21  CB        25.2820   -5.0120   47.2970 C.3    14  THR14       0.1794
     22  OG1       24.9140   -5.4440   48.5950 O.3    14  THR14      -0.2208
     23  CG2       26.5680   -5.7390   46.9000 C.3    14  THR14       0.0378
     24  N         30.3490   -3.8710   47.7420 N.3    17  PHE17      -0.1241
     25  CA        31.0550   -3.4510   46.6010 C.3    17  PHE17       0.1605
     26  C         31.2670   -1.9400   46.5400 C.2    17  PHE17       0.2264
     27  O         31.7150   -1.4520   45.5140 O.2    17  PHE17      -0.2867
     28  CB        30.3500   -3.9020   45.3020 C.3    17  PHE17       0.0534
     29  CG        30.2880   -5.3940   45.1150 C.ar   17  PHE17      -0.0203
     30  CD1       31.3070   -6.2270   45.5640 C.ar   17  PHE17      -0.0042
     31  CD2       29.2540   -5.9540   44.4450 C.ar   17  PHE17      -0.0042
     32  CE1       31.2400   -7.5950   45.3840 C.ar   17  PHE17      -0.0003
     33  CE2       29.1730   -7.3330   44.2780 C.ar   17  PHE17      -0.0003
     34  CZ        30.1560   -8.1510   44.7320 C.ar   17  PHE17      -0.0000
     35  N         34.0540   -1.6090   43.8020 N.3    21  ARG21      -0.1245
     36  CA        33.4820   -1.3630   42.5010 C.3    21  ARG21       0.1563
     37  C         32.9830    0.0200   42.2340 C.2    21  ARG21       0.2260
     38  O         33.1030    0.5360   41.1150 O.2    21  ARG21      -0.2867
     39  CB        32.3340   -2.3300   42.2390 C.3    21  ARG21       0.0307
     40  CG        32.7590   -3.7640   42.2400 C.3    21  ARG21       0.0489
     41  CD        31.6420   -4.6300   41.7170 C.3    21  ARG21       0.2205
     42  NE        32.0220   -6.0160   41.6300 N.pl3  21  ARG21      -0.0865
     43  CZ        31.2380   -7.0020   41.2120 C.cat  21  ARG21       0.5346
     44  NH1       30.0280   -6.7620   40.7810 N.pl3  21  ARG21       0.1354
     45  NH2       31.6850   -8.2340   41.2270 N.pl3  21  ARG21       0.1354
     46  N         22.0650   -0.8690   49.2930 N.3    42  ASP42      -0.1239
     47  CA        21.3200   -1.4150   50.4270 C.3    42  ASP42       0.1674
     48  C         21.8390   -0.9780   51.7930 C.2    42  ASP42       0.2266
     49  O         21.2890   -1.3960   52.8100 O.2    42  ASP42      -0.2867
     50  CB        21.3580   -2.9550   50.3780 C.3    42  ASP42       0.1410
     51  CG        22.7110   -3.4840   49.9710 C.2    42  ASP42       0.3668
     52  OD1       23.7730   -2.9190   50.3680 O.co2  42  ASP42      -0.2456
     53  OD2       22.7020   -4.4310   49.1820 O.co2  42  ASP42      -0.2456
     54  N         15.6110   -4.0830   45.1820 N.3    66  LYS66      -0.1245
     55  CA        16.4570   -3.0700   44.5770 C.3    66  LYS66       0.1561
     56  C         15.9960   -2.7550   43.1390 C.2    66  LYS66       0.2260
     57  O         16.0110   -1.5870   42.7590 O.2    66  LYS66      -0.2867
     58  CB        17.9560   -3.4510   44.5860 C.3    66  LYS66       0.0271
     59  CG        18.7560   -2.9020   45.7850 C.3    66  LYS66       0.0035
     60  CD        20.2790   -3.0570   45.6020 C.3    66  LYS66       0.0206
     61  CE        20.8840   -4.2760   46.3270 C.3    66  LYS66       0.1093
     62  NZ        20.0660   -5.5390   46.2910 N.3    66  LYS66      -0.1314
     63  N         24.6570   -2.8160   36.0240 N.3    86  ASP86      -0.1225
     64  CA        25.2640   -3.3440   37.2850 C.3    86  ASP86       0.1805
     65  C         26.5330   -2.5660   37.6160 C.2    86  ASP86       0.2598
     66  O         27.0170   -1.7430   36.8250 O.2    86  ASP86      -0.2718
     67  CB        25.6130   -4.8080   37.1680 C.3    86  ASP86       0.1424
     68  CG        24.3750   -5.7050   37.0540 C.2    86  ASP86       0.3668
     69  OD1       23.2360   -5.2100   37.2360 O.co2  86  ASP86      -0.2456
     70  OD2       24.5450   -6.8820   36.7140 O.co2  86  ASP86      -0.2456
     71  N         27.0880   -2.8200   38.7920 N.am   87  ASP87      -0.1960
     72  CA        28.1940   -2.0230   39.2310 C.3    87  ASP87       0.1840
     73  C         29.5410   -2.4470   38.6290 C.2    87  ASP87       0.2622
     74  O         30.5540   -1.8520   38.9590 O.2    87  ASP87      -0.2715
     75  CB        28.2590   -1.9760   40.7540 C.3    87  ASP87       0.1450
     76  CG        28.3290   -3.2980   41.3660 C.2    87  ASP87       0.3671
     77  OD1       28.4310   -4.3020   40.6370 O.co2  87  ASP87      -0.2456
     78  OD2       28.2420   -3.3590   42.6030 O.co2  87  ASP87      -0.2456
     79  N         29.5220   -3.4510   37.7510 N.am   88  ASP88      -0.1971
     80  CA        30.6990   -3.8160   36.9680 C.3    88  ASP88       0.1709
     81  C         30.5360   -3.4540   35.5070 C.2    88  ASP88       0.2293
     82  O         31.2420   -3.9460   34.6630 O.2    88  ASP88      -0.2864
     83  CB        31.0590   -5.2650   37.1610 C.3    88  ASP88       0.1436
     84  CG        29.8940   -6.2210   36.9830 C.2    88  ASP88       0.3671
     85  OD1       28.7780   -5.9090   36.4870 O.co2  88  ASP88      -0.2456
     86  OD2       30.1290   -7.3680   37.3910 O.co2  88  ASP88      -0.2456
     87  N         30.0300   -9.4090   31.0120 N.3   181  HIS181     -0.1241
     88  CA        31.2320  -10.2560   31.1000 C.3   181  HIS181      0.1621
     89  C         30.9520  -11.7400   30.9150 C.2   181  HIS181      0.2264
     90  O         31.7660  -12.5480   31.2780 O.2   181  HIS181     -0.2867
     91  CB        31.9970  -10.0050   32.3830 C.3   181  HIS181      0.0745
     92  CG        31.2180  -10.2860   33.6260 C.ar  181  HIS181      0.0817
     93  ND1       30.7570  -11.5440   33.9590 N.ar  181  HIS181     -0.2268
     94  CD2       30.8470   -9.4650   34.6410 C.ar  181  HIS181      0.1154
     95  CE1       30.0960  -11.4750   35.1110 C.ar  181  HIS181      0.1986
     96  NE2       30.1480  -10.2270   35.5470 N.ar  181  HIS181     -0.2212
@<TRIPOS>BOND
     1    89    88    1
     2    89    90    2
     3    87    88    1
     4    88    91    1
     5    91    92    1
     6    92    93   ar
     7    92    94   ar
     8    93    95   ar
     9    94    96   ar
    10    82    81    2
    11    95    96   ar
    12    81    80    1
    13    63    64    1
    14    85    84   ar
    15    70    68   ar
    16    66    65    2
    17    80    83    1
    18    80    79    1
    19    84    83    1
    20    84    86   ar
    21    68    67    1
    22    68    69   ar
    23    67    64    1
    24    64    65    1
    25    65    71   am
    26    79    73   am
    27    73    74    2
    28    73    72    1
    29    71    72    1
    30    72    75    1
    31     9     8    1
    32     1     2    1
    33     8     7    1
    34     5     2    1
    35     5     6    1
    36    77    76   ar
    37    75    76    1
    38    44    43    1
    39     2     3    1
    40    38    37    2
    41     4     3    2
    42    43    45    1
    43    43    42    2
    44     7     6    1
    45    76    78   ar
    46    42    41    1
    47    41    40    1
    48     3    10   am
    49    37    36    1
    50    39    40    1
    51    39    36    1
    52    36    35    1
    53    57    56    2
    54    10    11    1
    55    56    55    1
    56    11    14    1
    57    11    12    1
    58    14    15    1
    59    14    16    1
    60    33    31   ar
    61    33    34   ar
    62    31    29   ar
    63    55    58    1
    64    55    54    1
    65    58    59    1
    66    34    32   ar
    67    29    28    1
    68    29    30   ar
    69    12    13    2
    70    12    17   am
    71    28    25    1
    72    32    30   ar
    73    27    26    2
    74    60    59    1
    75    60    61    1
    76    17    18    1
    77    62    61    1
    78    26    25    1
    79    25    24    1
    80    23    21    1
    81    18    21    1
    82    18    19    1
    83    21    22    1
    84    20    19    2
    85    53    51   ar
    86    46    47    1
    87    51    52   ar
    88    51    50    1
    89    50    47    1
    90    47    48    1
    91    48    49    2
