@<TRIPOS>MOLECULE
tmp/2j0dA01.pdb
 211 201 0 0 0
SMALL
GASTEIGER

@<TRIPOS>ATOM
      1  N        -25.0540   -2.8190   35.5150 N.3    25  TYR25      -0.1241
      2  CA       -24.7290   -4.1690   35.0570 C.3    25  TYR25       0.1605
      3  C        -25.1650   -5.2770   36.0130 C.2    25  TYR25       0.2264
      4  O        -24.9450   -6.4630   35.7420 O.2    25  TYR25      -0.2867
      5  CB       -23.2310   -4.2960   34.8430 C.3    25  TYR25       0.0534
      6  CG       -22.6980   -3.5730   33.6420 C.ar   25  TYR25      -0.0201
      7  CD1      -23.5260   -3.2580   32.5640 C.ar   25  TYR25      -0.0009
      8  CD2      -21.3440   -3.2410   33.5630 C.ar   25  TYR25      -0.0009
      9  CE1      -23.0220   -2.6100   31.4400 C.ar   25  TYR25       0.0417
     10  CE2      -20.8260   -2.5910   32.4530 C.ar   25  TYR25       0.0417
     11  CZ       -21.6660   -2.2810   31.3900 C.ar   25  TYR25       0.1957
     12  OH       -21.1510   -1.6520   30.2790 O.3    25  TYR25      -0.2866
     13  N        -25.5820   -7.8640   31.2260 N.3    29  PHE29      -0.1241
     14  CA       -25.3570   -7.0510   30.0310 C.3    29  PHE29       0.1605
     15  C        -26.5320   -7.0180   29.0530 C.2    29  PHE29       0.2264
     16  O        -26.7210   -6.0290   28.3400 O.2    29  PHE29      -0.2867
     17  CB       -24.1110   -7.5350   29.2900 C.3    29  PHE29       0.0534
     18  CG       -22.8380   -7.2830   30.0300 C.ar   29  PHE29      -0.0203
     19  CD1      -22.2840   -6.0070   30.0750 C.ar   29  PHE29      -0.0042
     20  CD2      -22.1920   -8.3210   30.6920 C.ar   29  PHE29      -0.0042
     21  CE1      -21.1070   -5.7640   30.7610 C.ar   29  PHE29      -0.0003
     22  CE2      -21.0120   -8.0910   31.3850 C.ar   29  PHE29      -0.0003
     23  CZ       -20.4680   -6.8040   31.4180 C.ar   29  PHE29      -0.0000
     24  N        -18.2150    2.7110   30.9310 N.3    48  ASP48      -0.1239
     25  CA       -17.6240    1.6300   31.7120 C.3    48  ASP48       0.1674
     26  C        -16.4980    2.2260   32.5390 C.2    48  ASP48       0.2266
     27  O        -15.3500    2.3430   32.0870 O.2    48  ASP48      -0.2867
     28  CB       -17.1260    0.4930   30.8220 C.3    48  ASP48       0.1410
     29  CG       -18.2610   -0.3260   30.2530 C.2    48  ASP48       0.3668
     30  OD1      -19.1460   -0.7350   31.0400 O.co2  48  ASP48      -0.2456
     31  OD2      -18.2860   -0.5550   29.0200 O.co2  48  ASP48      -0.2456
     32  N        -10.3960   -3.9760   19.1020 N.3    77  ARG77      -0.1231
     33  CA       -11.2970   -4.1450   20.2310 C.3    77  ARG77       0.1694
     34  C        -10.7830   -3.3290   21.4130 C.2    77  ARG77       0.2591
     35  O         -9.6820   -2.7730   21.3510 O.2    77  ARG77      -0.2718
     36  CB       -11.3910   -5.6260   20.6000 C.3    77  ARG77       0.0321
     37  CG       -12.2450   -6.3920   19.6310 C.3    77  ARG77       0.0489
     38  CD       -12.2670   -7.8730   19.9210 C.3    77  ARG77       0.2205
     39  NE       -13.0450   -8.5630   18.9000 N.pl3  77  ARG77      -0.0865
     40  CZ       -12.5210   -9.1870   17.8570 C.cat  77  ARG77       0.5346
     41  NH1      -11.2080   -9.2320   17.7080 N.pl3  77  ARG77       0.1354
     42  NH2      -13.3110   -9.7790   16.9780 N.pl3  77  ARG77       0.1354
     43  N        -11.5740   -3.2590   22.4840 N.am   78  ARG78      -0.1980
     44  CA       -11.1210   -2.6130   23.7020 C.3    78  ARG78       0.1597
     45  C         -9.7830   -3.2030   24.0670 C.2    78  ARG78       0.2287
     46  O         -9.5900   -4.4040   23.9110 O.2    78  ARG78      -0.2864
     47  CB       -12.1000   -2.8380   24.8470 C.3    78  ARG78       0.0334
     48  CG       -13.0070   -1.6640   25.0990 C.3    78  ARG78       0.0492
     49  CD       -13.3310   -1.5320   26.5770 C.3    78  ARG78       0.2205
     50  NE       -14.7180   -1.1250   26.8050 N.pl3  78  ARG78      -0.0865
     51  CZ       -15.7250   -1.9810   26.9240 C.cat  78  ARG78       0.5346
     52  NH1      -15.4880   -3.2810   26.8480 N.pl3  78  ARG78       0.1354
     53  NH2      -16.9610   -1.5440   27.1080 N.pl3  78  ARG78       0.1354
     54  N         -7.1710   -4.6630   26.6870 N.3    80  PHE80      -0.1241
     55  CA        -7.2930   -5.2710   27.9960 C.3    80  PHE80       0.1605
     56  C         -5.9130   -5.7810   28.3960 C.2    80  PHE80       0.2264
     57  O         -5.2810   -6.5790   27.6870 O.2    80  PHE80      -0.2867
     58  CB        -8.3990   -6.3480   28.0350 C.3    80  PHE80       0.0534
     59  CG        -7.9140   -7.7400   27.7590 C.ar   80  PHE80      -0.0203
     60  CD1       -7.3480   -8.0710   26.5330 C.ar   80  PHE80      -0.0042
     61  CD2       -8.0300   -8.7260   28.7330 C.ar   80  PHE80      -0.0042
     62  CE1       -6.8840   -9.3680   26.2980 C.ar   80  PHE80      -0.0003
     63  CE2       -7.5770  -10.0240   28.5030 C.ar   80  PHE80      -0.0003
     64  CZ        -7.0090  -10.3490   27.2860 C.ar   80  PHE80      -0.0000
     65  N         -6.7020  -12.0870   18.5330 N.3    91  SER91      -0.1202
     66  CA        -7.8050  -11.3260   19.1190 C.3    91  SER91       0.2020
     67  C         -7.3400  -10.1610   19.9660 C.2    91  SER91       0.2618
     68  O         -8.0440   -9.1600   20.0790 O.2    91  SER91      -0.2717
     69  CB        -8.7440  -12.2160   19.9070 C.3    91  SER91       0.2103
     70  OG        -8.0240  -13.2280   20.5620 O.3    91  SER91      -0.2182
     71  N         -6.1450  -10.2760   20.5350 N.am   92  ILE92      -0.1979
     72  CA        -5.5740   -9.1950   21.3230 C.3    92  ILE92       0.1595
     73  C         -4.8670   -8.1590   20.4420 C.2    92  ILE92       0.2287
     74  O         -4.7490   -6.9950   20.8210 O.2    92  ILE92      -0.2864
     75  CB        -4.5530   -9.7220   22.3690 C.3    92  ILE92       0.0276
     76  CG1       -4.9780  -11.0880   22.9580 C.3    92  ILE92       0.0022
     77  CG2       -4.2430   -8.6380   23.4330 C.3    92  ILE92       0.0022
     78  CD1       -6.0500  -11.0620   24.0070 C.3    92  ILE92       0.0001
     79  N         -8.5230  -21.4810   31.6610 N.3   181  LEU181     -0.1245
     80  CA        -9.8060  -20.8890   31.2660 C.3   181  LEU181      0.1561
     81  C        -10.4760  -20.0420   32.3470 C.2   181  LEU181      0.2260
     82  O        -11.0080  -18.9610   32.0600 O.2   181  LEU181     -0.2867
     83  CB       -10.7740  -21.9740   30.7900 C.3   181  LEU181      0.0270
     84  CG       -10.4200  -22.6950   29.4910 C.3   181  LEU181      0.0019
     85  CD1      -11.0470  -24.0770   29.4580 C.3   181  LEU181      0.0001
     86  CD2      -10.8420  -21.8690   28.2910 C.3   181  LEU181      0.0001
     87  N         -9.8300  -17.9570   35.5950 N.3   183  PHE183     -0.1241
     88  CA        -8.8220  -17.2850   36.4210 C.3   183  PHE183      0.1605
     89  C         -9.1900  -17.3630   37.9060 C.2   183  PHE183      0.2264
     90  O         -8.3250  -17.2890   38.7830 O.2   183  PHE183     -0.2867
     91  CB        -8.6720  -15.8180   36.0140 C.3   183  PHE183      0.0534
     92  CG        -8.5800  -15.5970   34.5310 C.ar  183  PHE183     -0.0203
     93  CD1       -9.7130  -15.2650   33.7930 C.ar  183  PHE183     -0.0042
     94  CD2       -7.3610  -15.7030   33.8730 C.ar  183  PHE183     -0.0042
     95  CE1       -9.6340  -15.0500   32.4160 C.ar  183  PHE183     -0.0003
     96  CE2       -7.2720  -15.4900   32.4980 C.ar  183  PHE183     -0.0003
     97  CZ        -8.4110  -15.1610   31.7690 C.ar  183  PHE183     -0.0000
     98  N        -10.7180   -7.2840   38.0450 N.3   185  PHE185     -0.1241
     99  CA       -11.2340   -6.8820   36.7420 C.3   185  PHE185      0.1605
    100  C        -12.2180   -5.7300   36.8890 C.2   185  PHE185      0.2264
    101  O        -12.2860   -4.8500   36.0300 O.2   185  PHE185     -0.2867
    102  CB       -11.8910   -8.0620   36.0390 C.3   185  PHE185      0.0534
    103  CG       -10.9270   -9.1400   35.6470 C.ar  185  PHE185     -0.0203
    104  CD1      -10.1040   -8.9830   34.5360 C.ar  185  PHE185     -0.0042
    105  CD2      -10.8470  -10.3180   36.3860 C.ar  185  PHE185     -0.0042
    106  CE1       -9.2090   -9.9840   34.1670 C.ar  185  PHE185     -0.0003
    107  CE2       -9.9610  -11.3250   36.0300 C.ar  185  PHE185     -0.0003
    108  CZ        -9.1400  -11.1600   34.9190 C.ar  185  PHE185     -0.0000
    109  N        -11.4030   -1.7940   35.1270 N.3   189  THR189     -0.1218
    110  CA       -12.3700   -0.9100   34.4710 C.3   189  THR189      0.1862
    111  C        -12.4030    0.4900   35.1000 C.2   189  THR189      0.2287
    112  O        -12.5170    1.4880   34.3960 O.2   189  THR189     -0.2866
    113  CB       -13.7820   -1.5300   34.4920 C.3   189  THR189      0.1770
    114  OG1      -13.7260   -2.8490   33.9310 O.3   189  THR189     -0.2211
    115  CG2      -14.7690   -0.6830   33.6950 C.3   189  THR189      0.0375
    116  N         -2.8400  -14.0170   32.2530 N.3   206  PHE206     -0.1241
    117  CA        -2.6720  -15.4490   31.9740 C.3   206  PHE206      0.1605
    118  C         -1.5290  -16.0070   32.8250 C.2   206  PHE206      0.2264
    119  O         -0.4170  -15.4800   32.7790 O.2   206  PHE206     -0.2867
    120  CB        -2.4150  -15.6830   30.4810 C.3   206  PHE206      0.0534
    121  CG        -3.4690  -15.0860   29.5880 C.ar  206  PHE206     -0.0203
    122  CD1       -4.6900  -15.7330   29.3930 C.ar  206  PHE206     -0.0042
    123  CD2       -3.2500  -13.8710   28.9550 C.ar  206  PHE206     -0.0042
    124  CE1       -5.6730  -15.1760   28.5770 C.ar  206  PHE206     -0.0003
    125  CE2       -4.2270  -13.3090   28.1330 C.ar  206  PHE206     -0.0003
    126  CZ        -5.4410  -13.9610   27.9470 C.ar  206  PHE206     -0.0000
    127  N         -5.2970  -18.8600   22.3310 N.3   251  ILE251     -0.1245
    128  CA        -6.4470  -18.0420   21.9730 C.3   251  ILE251      0.1561
    129  C         -7.5850  -18.8880   21.4270 C.2   251  ILE251      0.2260
    130  O         -8.7510  -18.6410   21.7380 O.2   251  ILE251     -0.2867
    131  CB        -6.0420  -16.9210   20.9920 C.3   251  ILE251      0.0252
    132  CG1       -5.7000  -15.6450   21.7670 C.3   251  ILE251      0.0019
    133  CG2       -7.1240  -16.6450   19.9520 C.3   251  ILE251      0.0019
    134  CD1       -6.7630  -15.1710   22.7570 C.3   251  ILE251      0.0001
    135  N         -9.5340  -20.3110   24.3120 N.3   254  PHE254     -0.1227
    136  CA       -10.3800  -19.2820   24.8870 C.3   254  PHE254      0.1736
    137  C        -11.5950  -18.9840   24.0260 C.2   254  PHE254      0.2595
    138  O        -12.7090  -18.9190   24.5420 O.2   254  PHE254     -0.2718
    139  CB        -9.5900  -18.0120   25.1470 C.3   254  PHE254      0.0547
    140  CG        -8.8670  -18.0170   26.4570 C.ar  254  PHE254     -0.0202
    141  CD1       -9.5330  -17.6880   27.6310 C.ar  254  PHE254     -0.0042
    142  CD2       -7.5130  -18.3440   26.5180 C.ar  254  PHE254     -0.0042
    143  CE1       -8.8560  -17.6900   28.8440 C.ar  254  PHE254     -0.0003
    144  CE2       -6.8420  -18.3460   27.7230 C.ar  254  PHE254     -0.0003
    145  CZ        -7.5090  -18.0210   28.8880 C.ar  254  PHE254     -0.0000
    146  N        -11.3920  -18.8310   22.7200 N.am  255  ALA255     -0.1980
    147  CA       -12.4950  -18.5170   21.8200 C.3   255  ALA255      0.1597
    148  C        -13.4680  -19.6860   21.5840 C.2   255  ALA255      0.2287
    149  O        -14.6780  -19.5120   21.6010 O.2   255  ALA255     -0.2864
    150  CB       -11.9600  -17.9880   20.5140 C.3   255  ALA255      0.0319
    151  N        -15.9130  -22.1700   25.6230 N.3   258  GLU258     -0.1231
    152  CA       -17.1560  -21.8910   26.3370 C.3   258  GLU258      0.1699
    153  C        -18.3450  -21.5200   25.4390 C.2   258  GLU258      0.2592
    154  O        -19.4890  -21.8920   25.7360 O.2   258  GLU258     -0.2718
    155  CB       -16.9530  -20.8560   27.4410 C.3   258  GLU258      0.0402
    156  CG       -17.9350  -21.0520   28.5950 C.3   258  GLU258      0.1161
    157  CD       -17.5060  -20.3330   29.8680 C.2   258  GLU258      0.3649
    158  OE1      -17.6320  -19.0690   29.9230 O.co2 258  GLU258     -0.2457
    159  OE2      -17.0490  -21.0460   30.8130 O.co2 258  GLU258     -0.2457
    160  N        -18.0530  -20.8010   24.3530 N.am  259  THR259     -0.1953
    161  CA       -19.0330  -20.4110   23.3350 C.3   259  THR259      0.1897
    162  C        -19.7070  -21.6270   22.7170 C.2   259  THR259      0.2313
    163  O        -20.9250  -21.6840   22.6130 O.2   259  THR259     -0.2863
    164  CB       -18.3600  -19.6480   22.1910 C.3   259  THR259      0.1794
    165  OG1      -17.2510  -20.4150   21.7160 O.3   259  THR259     -0.2208
    166  CG2      -17.8660  -18.3060   22.6510 C.3   259  THR259      0.0378
    167  N        -21.5240  -13.7800   22.4250 N.3   320  ALA320     -0.1231
    168  CA       -20.7210  -12.5810   22.6630 C.3   320  ALA320      0.1694
    169  C        -21.5310  -11.3540   23.0810 C.2   320  ALA320      0.2592
    170  O        -20.9350  -10.3470   23.4950 O.2   320  ALA320     -0.2718
    171  CB       -19.8740  -12.2530   21.4720 C.3   320  ALA320      0.0304
    172  N        -22.8670  -11.4370   22.9630 N.am  321  MET321     -0.1965
    173  CA       -23.8220  -10.3740   23.3670 C.3   321  MET321      0.1736
    174  C        -23.6880   -9.0450   22.6470 C.2   321  MET321      0.2616
    175  O        -24.6890   -8.4770   22.2500 O.2   321  MET321     -0.2715
    176  CB       -23.7830  -10.1310   24.8740 C.3   321  MET321      0.0427
    177  CG       -24.3100  -11.2980   25.6910 C.3   321  MET321      0.0599
    178  SD       -24.0500  -11.0540   27.4680 S.3   321  MET321     -0.1393
    179  CE       -22.2590  -11.1800   27.5560 C.3   321  MET321      0.0692
    180  N        -22.4580   -8.5520   22.5110 N.am  322  ARG322     -0.1977
    181  CA       -22.1320   -7.3040   21.8100 C.3   322  ARG322      0.1597
    182  C        -20.8780   -7.4740   20.9590 C.2   322  ARG322      0.2287
    183  O        -20.0800   -8.3710   21.1940 O.2   322  ARG322     -0.2864
    184  CB       -21.7970   -6.1890   22.7860 C.3   322  ARG322      0.0334
    185  CG       -22.8150   -5.8760   23.7780 C.3   322  ARG322      0.0492
    186  CD       -22.1710   -5.6530   25.1210 C.3   322  ARG322      0.2205
    187  NE       -23.0860   -4.9360   26.0010 N.pl3 322  ARG322     -0.0865
    188  CZ       -22.6990   -4.0890   26.9390 C.cat 322  ARG322      0.5346
    189  NH1      -23.6190   -3.4660   27.6670 N.pl3 322  ARG322      0.1354
    190  NH2      -21.4010   -3.8520   27.1350 N.pl3 322  ARG322      0.1354
    191  N        -17.6060   -5.0660   19.8500 N.3   324  GLU324     -0.1245
    192  CA       -17.0210   -3.7670   20.1520 C.3   324  GLU324      0.1567
    193  C        -15.9450   -3.3890   19.1600 C.2   324  GLU324      0.2260
    194  O        -15.3250   -4.2450   18.5210 O.2   324  GLU324     -0.2867
    195  CB       -16.5230   -3.7000   21.6030 C.3   324  GLU324      0.0388
    196  CG       -17.6580   -3.8190   22.6220 C.3   324  GLU324      0.1160
    197  CD       -17.2460   -3.5040   24.0500 C.2   324  GLU324      0.3649
    198  OE1      -16.0390   -3.6750   24.4080 O.co2 324  GLU324     -0.2457
    199  OE2      -18.1540   -3.0880   24.8180 O.co2 324  GLU324     -0.2457
    200  N        -21.4720  -12.8790   33.0840 N.3   431  GLY431     -0.1210
    201  CA       -20.4830  -12.7520   32.0120 C.3   431  GLY431      0.1956
    202  C        -21.0070  -13.0410   30.6210 C.2   431  GLY431      0.2611
    203  O        -22.0880  -12.5680   30.2420 O.2   431  GLY431     -0.2717
    204  N        -20.2110  -13.7990   29.8590 N.am  432  LEU432     -0.1979
    205  CA       -20.5980  -14.3950   28.5750 C.3   432  LEU432      0.1596
    206  C        -21.9420  -15.1080   28.7090 C.2   432  LEU432      0.2287
    207  O        -22.2620  -15.6320   29.7740 O.2   432  LEU432     -0.2864
    208  CB       -19.5370  -15.4150   28.1720 C.3   432  LEU432      0.0297
    209  CG       -19.2770  -15.7440   26.7060 C.3   432  LEU432      0.0022
    210  CD1      -18.4030  -14.6710   26.0210 C.3   432  LEU432      0.0001
    211  CD2      -18.6230  -17.1260   26.6140 C.3   432  LEU432      0.0001
@<TRIPOS>BOND
     1    42    40    1
     2    41    40    1
     3    40    39    2
     4   194   193    2
     5    65    66    1
     6    39    38    1
     7    32    33    1
     8    66    69    1
     9    66    67    1
    10   193   192    1
    11    37    38    1
    12    37    36    1
    13   191   192    1
    14    69    70    1
    15   133   131    1
    16    67    68    2
    17    67    71   am
    18   192   195    1
    19    33    36    1
    20    33    34    1
    21    73    74    2
    22    73    72    1
    23   150   147    1
    24    71    72    1
    25   182   183    2
    26   182   181    1
    27   131   132    1
    28   131   128    1
    29    72    75    1
    30    35    34    2
    31    34    43   am
    32   129   130    2
    33   129   128    1
    34   171   168    1
    35   148   149    2
    36   148   147    1
    37   195   196    1
    38   165   164    1
    39   132   134    1
    40   181   180    1
    41   181   184    1
    42   147   146    1
    43   128   127    1
    44   164   166    1
    45   164   161    1
    46   175   174    2
    47    75    76    1
    48    75    77    1
    49   167   168    1
    50    43    44    1
    51   180   174   am
    52   163   162    2
    53   196   197    1
    54   174   173    1
    55   168   169    1
    56   162   161    1
    57   146   137   am
    58   184   185    1
    59    76    78    1
    60   172   169   am
    61   172   173    1
    62   169   170    2
    63   161   160    1
    64   173   176    1
    65    44    45    1
    66    44    47    1
    67   185   186    1
    68    46    45    2
    69   137   138    2
    70   137   136    1
    71   197   198   ar
    72   197   199   ar
    73   135   136    1
    74   160   153   am
    75    47    48    1
    76   176   177    1
    77   136   139    1
    78    48    49    1
    79   186   187    1
    80   139   140    1
    81   153   154    2
    82   153   152    1
    83   151   152    1
    84   177   178    1
    85   187   188    2
    86   210   209    1
    87    62    60   ar
    88    62    64   ar
    89   152   155    1
    90   140   142   ar
    91   140   141   ar
    92   142   144   ar
    93    60    59   ar
    94    49    50    1
    95   211   209    1
    96    54    55    1
    97   209   208    1
    98    50    51    2
    99    52    51    1
   100    51    53    1
   101   188   190    1
   102   188   189    1
   103    64    63   ar
   104   155   156    1
   105   178   179    1
   106   141   143   ar
   107    57    56    2
   108   144   145   ar
   109    59    58    1
   110    59    61   ar
   111   126   125   ar
   112   126   124   ar
   113    55    58    1
   114    55    56    1
   115   125   123   ar
   116   208   205    1
   117    86    84    1
   118    16    15    2
   119    63    61   ar
   120   205   206    1
   121   205   204    1
   122   124   122   ar
   123   156   157    1
   124   206   207    2
   125   143   145   ar
   126   123   121   ar
   127    31    29   ar
   128    15    14    1
   129    17    18    1
   130    17    14    1
   131   122   121   ar
   132    85    84    1
   133    84    83    1
   134   121   120    1
   135   204   202   am
   136   157   158   ar
   137   157   159   ar
   138    18    19   ar
   139    18    20   ar
   140    14    13    1
   141    19    21   ar
   142   203   202    2
   143    29    28    1
   144    29    30   ar
   145    12    11    1
   146   120   117    1
   147   202   201    1
   148    20    22   ar
   149    21    23   ar
   150    83    80    1
   151    28    25    1
   152    24    25    1
   153    80    79    1
   154    80    81    1
   155    22    23   ar
   156    11     9   ar
   157    11    10   ar
   158     9     7   ar
   159    25    26    1
   160    97    95   ar
   161    97    96   ar
   162   117   116    1
   163   117   118    1
   164   201   200    1
   165    82    81    2
   166    27    26    2
   167    95    93   ar
   168    10     8   ar
   169    96    94   ar
   170     7     6   ar
   171   119   118    2
   172     8     6   ar
   173     6     5    1
   174   115   113    1
   175    93    92   ar
   176    94    92   ar
   177   114   113    1
   178   106   104   ar
   179   106   108   ar
   180   112   111    2
   181   110   113    1
   182   110   111    1
   183   110   109    1
   184    92    91    1
   185   104   103   ar
   186     5     2    1
   187   108   107   ar
   188     2     1    1
   189     2     3    1
   190    87    88    1
   191   103   102    1
   192   103   105   ar
   193     4     3    2
   194    91    88    1
   195   101   100    2
   196   107   105   ar
   197   102    99    1
   198    88    89    1
   199    99   100    1
   200    99    98    1
   201    89    90    2
