@<TRIPOS>MOLECULE
tmp/2j0fA00.pdb
 103 95 0 0 0
SMALL
GASTEIGER

@<TRIPOS>ATOM
      1  N         13.8770  -80.7960   13.6620 N.3    83  HIS83      -0.1226
      2  CA        14.0760  -79.5810   12.8920 C.3    83  HIS83       0.1752
      3  C         14.1760  -79.8920   11.3980 C.2    83  HIS83       0.2597
      4  O         14.6280  -80.9600   10.9950 O.2    83  HIS83      -0.2718
      5  CB        15.3210  -78.8400   13.3680 C.3    83  HIS83       0.0759
      6  CG        15.2030  -77.3540   13.2820 C.ar   83  HIS83       0.0818
      7  ND1       14.7820  -76.5790   14.3420 N.ar   83  HIS83      -0.2268
      8  CD2       15.4310  -76.5000   12.2550 C.ar   83  HIS83       0.1154
      9  CE1       14.7710  -75.3090   13.9760 C.ar   83  HIS83       0.1986
     10  NE2       15.1530  -75.2350   12.7110 N.ar   83  HIS83      -0.2212
     11  N         13.7470  -78.9470   10.5780 N.am   84  SER84      -0.1938
     12  CA        13.8690  -79.0590    9.1360 C.3    84  SER84       0.2055
     13  C         14.8290  -78.0030    8.6030 C.2    84  SER84       0.2643
     14  O         14.8840  -76.8920    9.1190 O.2    84  SER84      -0.2714
     15  CB        12.5080  -78.8600    8.4700 C.3    84  SER84       0.2130
     16  OG        11.6360  -79.9390    8.7480 O.3    84  SER84      -0.2179
     17  N         15.5820  -78.3560    7.5620 N.am   85  THR85      -0.1950
     18  CA        16.3600  -77.3660    6.8160 C.3    85  THR85       0.1897
     19  C         15.4480  -76.4960    5.9380 C.2    85  THR85       0.2313
     20  O         15.8150  -75.3940    5.5370 O.2    85  THR85      -0.2863
     21  CB        17.4690  -78.0150    5.9590 C.3    85  THR85       0.1794
     22  OG1       16.8710  -78.9490    5.0640 O.3    85  THR85      -0.2208
     23  CG2       18.4730  -78.7440    6.8400 C.3    85  THR85       0.0378
     24  N         11.7550  -71.1490   13.6830 N.3   112  GLY112     -0.1225
     25  CA        12.1730  -70.0250   12.8500 C.3   112  GLY112      0.1811
     26  C         11.0800  -69.4930   11.9650 C.2   112  GLY112      0.2280
     27  O         10.0790  -70.1760   11.7380 O.2   112  GLY112     -0.2866
     28  N         12.4090  -68.1700    5.3820 N.3   115  LEU115     -0.1245
     29  CA        13.8000  -68.0630    4.9980 C.3   115  LEU115      0.1561
     30  C         13.8650  -68.2790    3.4850 C.2   115  LEU115      0.2260
     31  O         13.6690  -69.3990    3.0060 O.2   115  LEU115     -0.2867
     32  CB        14.5830  -69.1420    5.7330 C.3   115  LEU115      0.0270
     33  CG        15.9960  -69.0030    6.2990 C.3   115  LEU115      0.0019
     34  CD1       16.2770  -67.6890    7.0230 C.3   115  LEU115      0.0001
     35  CD2       16.1980  -70.1800    7.2320 C.3   115  LEU115      0.0001
     36  N         19.5560  -64.7820   11.0900 N.3   166  TYR166     -0.1241
     37  CA        18.5020  -65.4990   10.3800 C.3   166  TYR166      0.1605
     38  C         17.6260  -64.5080    9.6250 C.2   166  TYR166      0.2264
     39  O         17.3790  -64.6640    8.4120 O.2   166  TYR166     -0.2867
     40  CB        17.6750  -66.2490   11.4310 C.3   166  TYR166      0.0534
     41  CG        16.6510  -67.2440   10.9660 C.ar  166  TYR166     -0.0201
     42  CD1       15.4550  -66.8280   10.3790 C.ar  166  TYR166     -0.0009
     43  CD2       16.8300  -68.6040   11.2060 C.ar  166  TYR166     -0.0009
     44  CE1       14.4890  -67.7330   10.0160 C.ar  166  TYR166      0.0417
     45  CE2       15.8650  -69.5310   10.8350 C.ar  166  TYR166      0.0417
     46  CZ        14.7010  -69.0910   10.2410 C.ar  166  TYR166      0.1957
     47  OH        13.7570  -70.0140    9.8550 O.3   166  TYR166     -0.2866
     48  N         19.7460  -63.1370    6.9050 N.3   169  ARG169     -0.1245
     49  CA        19.9720  -64.1810    5.8850 C.3   169  ARG169      0.1563
     50  C         18.7900  -64.3560    4.9220 C.2   169  ARG169      0.2260
     51  O         18.9790  -64.4480    3.6930 O.2   169  ARG169     -0.2867
     52  CB        20.3100  -65.5150    6.5420 C.3   169  ARG169      0.0307
     53  CG        21.7400  -65.6090    7.0490 C.3   169  ARG169      0.0489
     54  CD        21.9260  -66.8180    7.9620 C.3   169  ARG169      0.2205
     55  NE        21.7320  -68.0440    7.2040 N.pl3 169  ARG169     -0.0865
     56  CZ        21.1080  -69.1300    7.6460 C.cat 169  ARG169      0.5346
     57  NH1       20.9830  -70.1690    6.8280 N.pl3 169  ARG169      0.1354
     58  NH2       20.6190  -69.1880    8.8810 N.pl3 169  ARG169      0.1354
     59  N         21.0680  -67.5190    2.7880 N.3   175  VAL175     -0.1245
     60  CA        20.4360  -68.6740    3.4090 C.3   175  VAL175      0.1561
     61  C         21.1920  -69.9540    3.0870 C.2   175  VAL175      0.2260
     62  O         21.4380  -70.7710    3.9810 O.2   175  VAL175     -0.2867
     63  CB        18.9400  -68.8250    2.9420 C.3   175  VAL175      0.0252
     64  CG1       18.3510  -70.1640    3.3980 C.3   175  VAL175      0.0019
     65  CG2       18.0700  -67.6420    3.4350 C.3   175  VAL175      0.0019
     66  N         23.8530  -72.6230    7.9610 N.3   181  ILE181     -0.1245
     67  CA        22.6930  -73.5010    8.2510 C.3   181  ILE181      0.1561
     68  C         22.9590  -74.3890    9.4590 C.2   181  ILE181      0.2260
     69  O         22.1160  -74.5070   10.3450 O.2   181  ILE181     -0.2867
     70  CB        22.3210  -74.3920    7.0570 C.3   181  ILE181      0.0252
     71  CG1       21.8140  -73.5390    5.8850 C.3   181  ILE181      0.0019
     72  CG2       21.2720  -75.4220    7.4750 C.3   181  ILE181      0.0019
     73  CD1       21.8170  -74.2760    4.5190 C.3   181  ILE181      0.0001
     74  N         23.1070  -72.3110   12.5950 N.3   184  SER184     -0.1202
     75  CA        21.7360  -71.8540   12.8830 C.3   184  SER184      0.2020
     76  C         20.8330  -72.9180   13.5140 C.2   184  SER184      0.2618
     77  O         20.1710  -72.6680   14.5370 O.2   184  SER184     -0.2717
     78  CB        21.0720  -71.3100   11.6200 C.3   184  SER184      0.2103
     79  OG        19.8280  -70.7240   11.9340 O.3   184  SER184     -0.2182
     80  N         20.8090  -74.1000   12.9090 N.am  185  ILE185     -0.1979
     81  CA        19.9680  -75.1890   13.3970 C.3   185  ILE185      0.1595
     82  C         20.4490  -75.6950   14.7540 C.2   185  ILE185      0.2287
     83  O         19.6820  -75.7400   15.7100 O.2   185  ILE185     -0.2864
     84  CB        19.9030  -76.3500   12.3680 C.3   185  ILE185      0.0276
     85  CG1       19.1650  -75.8720   11.1110 C.3   185  ILE185      0.0022
     86  CG2       19.2710  -77.6210   12.9990 C.3   185  ILE185      0.0022
     87  CD1       18.9580  -76.9330   10.0480 C.3   185  ILE185      0.0001
     88  N         20.2170  -73.4520   18.2080 N.3   188  LYS188     -0.1245
     89  CA        18.8860  -73.5240   18.7950 C.3   188  LYS188      0.1561
     90  C         18.6360  -74.8270   19.5390 C.2   188  LYS188      0.2260
     91  O         18.0550  -74.8180   20.6230 O.2   188  LYS188     -0.2867
     92  CB        17.8220  -73.3420   17.7190 C.3   188  LYS188      0.0271
     93  CG        17.6710  -71.9090   17.2130 C.3   188  LYS188      0.0035
     94  CD        16.4240  -71.7450   16.3390 C.3   188  LYS188      0.0206
     95  CE        16.5990  -72.4030   15.0170 C.3   188  LYS188      0.1093
     96  NZ        17.4100  -71.5090   14.1390 N.3   188  LYS188     -0.1314
     97  N         16.7250  -76.2740   -0.2200 N.3   208  VAL208     -0.1245
     98  CA        18.0440  -75.6560   -0.0840 C.3   208  VAL208      0.1561
     99  C         19.1390  -76.4030   -0.8780 C.2   208  VAL208      0.2260
    100  O         20.1580  -75.8080   -1.2180 O.2   208  VAL208     -0.2867
    101  CB        18.4750  -75.5520    1.4090 C.3   208  VAL208      0.0252
    102  CG1       19.5060  -74.4500    1.5870 C.3   208  VAL208      0.0019
    103  CG2       17.2650  -75.3200    2.3280 C.3   208  VAL208      0.0019
@<TRIPOS>BOND
     1   100    99    2
     2    99    98    1
     3    97    98    1
     4    98   101    1
     5   101   102    1
     6   101   103    1
     7    59    60    1
     8    63    64    1
     9    63    60    1
    10    63    65    1
    11    31    30    2
    12    61    60    1
    13    61    62    2
    14    30    29    1
    15    51    50    2
    16    73    71    1
    17    50    49    1
    18    29    28    1
    19    29    32    1
    20    22    21    1
    21    20    19    2
    22    32    33    1
    23    49    52    1
    24    49    48    1
    25    71    70    1
    26    19    18    1
    27    21    18    1
    28    21    23    1
    29    33    34    1
    30    33    35    1
    31    52    53    1
    32    18    17    1
    33    57    56    1
    34    53    54    1
    35    70    72    1
    36    70    67    1
    37    55    56    2
    38    55    54    1
    39    17    13   am
    40    56    58    1
    41    66    67    1
    42    67    68    1
    43    39    38    2
    44    15    16    1
    45    15    12    1
    46    13    14    2
    47    13    12    1
    48    12    11    1
    49    68    69    2
    50    38    37    1
    51    47    46    1
    52    44    46   ar
    53    44    42   ar
    54    87    85    1
    55    46    45   ar
    56    42    41   ar
    57    37    36    1
    58    37    40    1
    59    11     3   am
    60    45    43   ar
    61    41    43   ar
    62    41    40    1
    63     4     3    2
    64    85    84    1
    65     3     2    1
    66    78    79    1
    67    78    75    1
    68    27    26    2
    69    26    25    1
    70     8    10   ar
    71     8     6   ar
    72    84    86    1
    73    84    81    1
    74    74    75    1
    75    10     9   ar
    76    25    24    1
    77    75    76    1
    78     2     5    1
    79     2     1    1
    80    80    81    1
    81    80    76   am
    82     6     5    1
    83     6     7   ar
    84    81    82    1
    85    76    77    2
    86     9     7   ar
    87    96    95    1
    88    82    83    2
    89    95    94    1
    90    94    93    1
    91    93    92    1
    92    92    89    1
    93    88    89    1
    94    89    90    1
    95    90    91    2
