@<TRIPOS>MOLECULE
tmp/2j0gE01.pdb
 80 74 0 0 0
SMALL
GASTEIGER

@<TRIPOS>ATOM
      1  N        -22.6730    4.7440    2.4150 N.3   122  GLU122     -0.1231
      2  CA       -23.1550    3.5900    3.1560 C.3   122  GLU122      0.1699
      3  C        -22.6800    3.6050    4.6290 C.2   122  GLU122      0.2592
      4  O        -22.4330    2.5610    5.2290 O.2   122  GLU122     -0.2718
      5  CB       -22.7020    2.3110    2.4890 C.3   122  GLU122      0.0402
      6  CG       -22.0190    2.5150    1.1650 C.3   122  GLU122      0.1161
      7  CD       -22.9890    2.5810    0.0190 C.2   122  GLU122      0.3649
      8  OE1      -24.1420    2.1220    0.2010 O.co2 122  GLU122     -0.2457
      9  OE2      -22.5880    3.0890   -1.0590 O.co2 122  GLU122     -0.2457
     10  N        -22.5430    4.7950    5.2020 N.am  123  LYS123     -0.1980
     11  CA       -22.1390    4.9180    6.5990 C.3   123  LYS123      0.1596
     12  C        -21.0370    3.9400    6.9910 C.2   123  LYS123      0.2287
     13  O        -21.1900    3.1880    7.9490 O.2   123  LYS123     -0.2864
     14  CB       -23.3630    4.7610    7.5100 C.3   123  LYS123      0.0298
     15  CG       -24.4000    5.8750    7.2910 C.3   123  LYS123      0.0038
     16  CD       -25.7380    5.5120    7.8560 C.3   123  LYS123      0.0206
     17  CE       -26.6780    6.7050    7.9070 C.3   123  LYS123      0.1093
     18  NZ       -27.8930    6.3170    8.6760 N.3   123  LYS123     -0.1314
     19  N        -20.0530    1.0880    6.3880 N.3   125  ASN125     -0.1240
     20  CA       -20.4010   -0.2880    6.6510 C.3   125  ASN125      0.1653
     21  C        -19.1910   -1.2180    6.6970 C.2   125  ASN125      0.2266
     22  O        -18.2270   -1.0330    5.9670 O.2   125  ASN125     -0.2867
     23  CB       -21.4310   -0.7470    5.6120 C.3   125  ASN125      0.1155
     24  CG       -21.6780   -2.2300    5.6480 C.2   125  ASN125      0.2627
     25  OD1      -20.8950   -2.9960    5.1210 O.2   125  ASN125     -0.2716
     26  ND2      -22.7850   -2.6450    6.2540 N.am  125  ASN125     -0.0877
     27  N        -17.3060   -4.8020    6.2050 N.3   127  VAL127     -0.1245
     28  CA       -17.3020   -6.0780    5.5220 C.3   127  VAL127      0.1561
     29  C        -16.1120   -6.9180    5.9870 C.2   127  VAL127      0.2260
     30  O        -14.9460   -6.6970    5.5930 O.2   127  VAL127     -0.2867
     31  CB       -17.3300   -5.9170    4.0010 C.3   127  VAL127      0.0252
     32  CG1      -17.9290   -7.1490    3.3780 C.3   127  VAL127      0.0019
     33  CG2      -18.1470   -4.7160    3.6150 C.3   127  VAL127      0.0019
     34  N        -20.0300   -7.6900   11.8430 N.3   144  ASN144     -0.1225
     35  CA       -20.1210   -7.6610   10.3870 C.3   144  ASN144      0.1785
     36  C        -21.4150   -6.9800    9.9200 C.2   144  ASN144      0.2597
     37  O        -22.4490   -7.1100   10.5710 O.2   144  ASN144     -0.2718
     38  CB       -20.0180   -9.0760    9.8070 C.3   144  ASN144      0.1169
     39  CG       -19.8320   -9.0720    8.2890 C.2   144  ASN144      0.2627
     40  OD1      -18.9180   -8.4290    7.7560 O.2   144  ASN144     -0.2716
     41  ND2      -20.7050   -9.7820    7.5910 N.am  144  ASN144     -0.0877
     42  N        -21.3400   -6.2310    8.8210 N.am  145  ASN145     -0.1960
     43  CA       -22.5310   -5.6150    8.1970 C.3   145  ASN145      0.1819
     44  C        -23.1990   -4.5060    9.0310 C.2   145  ASN145      0.2621
     45  O        -24.4160   -4.3260    9.0350 O.2   145  ASN145     -0.2715
     46  CB       -23.5470   -6.6960    7.8700 C.3   145  ASN145      0.1195
     47  CG       -24.4250   -6.3440    6.6860 C.2   145  ASN145      0.2630
     48  OD1      -24.0830   -5.4670    5.8620 O.2   145  ASN145     -0.2716
     49  ND2      -25.5790   -7.0600    6.5850 N.am  145  ASN145     -0.0877
     50  N        -22.3870   -3.7690    9.7610 N.am  146  GLN146     -0.1963
     51  CA       -22.9290   -2.7800   10.6540 C.3   146  GLN146      0.1733
     52  C        -22.3580   -1.4710   10.2190 C.2   146  GLN146      0.2617
     53  O        -21.2220   -1.3990    9.7510 O.2   146  GLN146     -0.2715
     54  CB       -22.5520   -3.0570   12.1200 C.3   146  GLN146      0.0408
     55  CG       -23.3610   -4.1540   12.8190 C.3   146  GLN146      0.0908
     56  CD       -24.8680   -4.0380   12.5810 C.2   146  GLN146      0.2608
     57  OE1      -25.4470   -2.9330   12.4950 O.2   146  GLN146     -0.2717
     58  NE2      -25.5140   -5.1860   12.4820 N.am  146  GLN146     -0.0878
     59  N        -23.1580   -0.4320   10.3710 N.am  147  SER147     -0.1950
     60  CA       -22.7240    0.8730   10.0220 C.3   147  SER147      0.1924
     61  C        -21.8000    1.2930   11.1300 C.2   147  SER147      0.2314
     62  O        -21.6240    0.5720   12.1230 O.2   147  SER147     -0.2863
     63  CB       -23.9190    1.8030    9.9280 C.3   147  SER147      0.2116
     64  OG       -24.6180    1.6040    8.7090 O.3   147  SER147     -0.2180
     65  N        -26.5150    5.0480   14.0380 N.3   155  ASN155     -0.1240
     66  CA       -26.7940    4.1750   12.8940 C.3   155  ASN155      0.1653
     67  C        -26.8070    2.7080   13.3190 C.2   155  ASN155      0.2266
     68  O        -26.6080    1.8290   12.4760 O.2   155  ASN155     -0.2867
     69  CB       -25.7410    4.3730   11.8050 C.3   155  ASN155      0.1155
     70  CG       -25.6680    5.8110   11.3100 C.2   155  ASN155      0.2627
     71  OD1      -26.7040    6.4570   11.0940 O.2   155  ASN155     -0.2716
     72  ND2      -24.4510    6.3130   11.1050 N.am  155  ASN155     -0.0877
     73  N        -28.3390   -0.8390   15.6720 N.3   157  LEU157     -0.1245
     74  CA       -29.5580   -1.6090   15.7090 C.3   157  LEU157      0.1561
     75  C        -30.0870   -1.6370   17.1390 C.2   157  LEU157      0.2260
     76  O        -30.7060   -2.6010   17.5690 O.2   157  LEU157     -0.2867
     77  CB       -29.3500   -3.0310   15.1610 C.3   157  LEU157      0.0270
     78  CG       -28.6960   -3.2970   13.7950 C.3   157  LEU157      0.0019
     79  CD1      -28.9420   -4.7050   13.3450 C.3   157  LEU157      0.0001
     80  CD2      -29.2350   -2.3650   12.7680 C.3   157  LEU157      0.0001
@<TRIPOS>BOND
     1     9     7   ar
     2     7     8   ar
     3     7     6    1
     4     6     5    1
     5     1     2    1
     6     5     2    1
     7     2     3    1
     8    32    31    1
     9    33    31    1
    10    31    28    1
    11     3    10   am
    12     3     4    2
    13    25    24    2
    14    10    11    1
    15    28    29    1
    16    28    27    1
    17    30    29    2
    18    23    24    1
    19    23    20    1
    20    24    26   am
    21    48    47    2
    22    22    21    2
    23    19    20    1
    24    49    47   am
    25    11    12    1
    26    11    14    1
    27    20    21    1
    28    47    46    1
    29    12    13    2
    30    15    14    1
    31    15    16    1
    32    41    39   am
    33    40    39    2
    34    16    17    1
    35    46    43    1
    36    17    18    1
    37    43    42    1
    38    43    44    1
    39    39    38    1
    40    64    63    1
    41    42    36   am
    42    44    45    2
    43    44    50   am
    44    53    52    2
    45    50    51    1
    46    38    35    1
    47    36    35    1
    48    36    37    2
    49    63    60    1
    50    60    59    1
    51    60    61    1
    52    52    59   am
    53    52    51    1
    54    35    34    1
    55    51    54    1
    56    71    70    2
    57    72    70   am
    58    61    62    2
    59    70    69    1
    60    69    66    1
    61    54    55    1
    62    68    67    2
    63    58    56   am
    64    57    56    2
    65    56    55    1
    66    80    78    1
    67    66    67    1
    68    66    65    1
    69    79    78    1
    70    78    77    1
    71    77    74    1
    72    73    74    1
    73    74    75    1
    74    75    76    2
