@<TRIPOS>MOLECULE
tmp/2j0kB00.pdb
 163 152 0 0 0
SMALL
GASTEIGER

@<TRIPOS>ATOM
      1  N         -5.1830   -1.1040  118.7330 N.3   368  ILE368     -0.1231
      2  CA        -5.0040   -2.5360  119.0000 C.3   368  ILE368      0.1692
      3  C         -3.8290   -3.2110  118.2820 C.2   368  ILE368      0.2593
      4  O         -3.4850   -4.3360  118.6250 O.2   368  ILE368     -0.2718
      5  CB        -6.3060   -3.3500  118.7510 C.3   368  ILE368      0.0266
      6  CG1       -6.6920   -3.3180  117.2750 C.3   368  ILE368      0.0019
      7  CG2       -7.4440   -2.8250  119.6080 C.3   368  ILE368      0.0020
      8  CD1       -8.0470   -3.9370  116.9680 C.3   368  ILE368      0.0001
      9  N         -3.2250   -2.5430  117.2960 N.am  369  GLY369     -0.1942
     10  CA        -2.0770   -3.0980  116.5610 C.3   369  GLY369      0.2014
     11  C         -1.3000   -2.0550  115.7800 C.2   369  GLY369      0.2639
     12  O         -1.8490   -1.0180  115.4280 O.2   369  GLY369     -0.2714
     13  N         -0.0180   -2.3240  115.5250 N.am  370  GLU370     -0.1963
     14  CA         0.8320   -1.4540  114.7040 C.3   370  GLU370      0.1733
     15  C          1.0810   -2.0330  113.3080 C.2   370  GLU370      0.2616
     16  O          1.4900   -3.1860  113.1790 O.2   370  GLU370     -0.2715
     17  CB         2.1740   -1.1880  115.3860 C.3   370  GLU370      0.0429
     18  CG         2.1850    0.0370  116.3010 C.3   370  GLU370      0.1163
     19  CD         2.1250   -0.3090  117.7910 C.2   370  GLU370      0.3649
     20  OE1        1.7180   -1.4420  118.1490 O.co2 370  GLU370     -0.2457
     21  OE2        2.4910    0.5620  118.6150 O.co2 370  GLU370     -0.2457
     22  N          0.8330   -1.2310  112.2700 N.am  371  GLY371     -0.1955
     23  CA         1.1610   -1.6090  110.8850 C.3   371  GLY371      0.1869
     24  C          2.4820   -1.0030  110.4250 C.2   371  GLY371      0.2309
     25  O          3.4090   -0.8180  111.2260 O.2   371  GLY371     -0.2863
     26  N          2.3430    1.2920  107.1400 N.3   373  PHE373     -0.1241
     27  CA         1.5760    2.4320  106.6570 C.3   373  PHE373      0.1605
     28  C          0.9020    3.1510  107.8230 C.2   373  PHE373      0.2264
     29  O          0.9320    4.3820  107.9090 O.2   373  PHE373     -0.2867
     30  CB         0.5140    1.9310  105.6680 C.3   373  PHE373      0.0534
     31  CG         0.2670    0.4370  105.7480 C.ar  373  PHE373     -0.0203
     32  CD1        0.0340   -0.1910  106.9850 C.ar  373  PHE373     -0.0042
     33  CD2        0.2750   -0.3440  104.5880 C.ar  373  PHE373     -0.0042
     34  CE1       -0.1750   -1.5700  107.0670 C.ar  373  PHE373     -0.0003
     35  CE2        0.0540   -1.7300  104.6560 C.ar  373  PHE373     -0.0003
     36  CZ        -0.1730   -2.3430  105.8980 C.ar  373  PHE373     -0.0000
     37  N         -3.8580    0.0420  113.6550 N.3   376  VAL376     -0.1245
     38  CA        -5.2050   -0.5180  113.7630 C.3   376  VAL376      0.1561
     39  C         -5.8160   -0.2360  115.1380 C.2   376  VAL376      0.2260
     40  O         -5.1810   -0.4410  116.1730 O.2   376  VAL376     -0.2867
     41  CB        -5.2150   -2.0350  113.5130 C.3   376  VAL376      0.0252
     42  CG1       -6.6140   -2.6050  113.7100 C.3   376  VAL376      0.0019
     43  CG2       -4.6950   -2.3470  112.1220 C.3   376  VAL376      0.0019
     44  N        -12.9940   -3.1230  113.5700 N.3   392  ALA392     -0.1245
     45  CA       -11.5710   -2.8000  113.5870 C.3   392  ALA392      0.1562
     46  C        -11.3330   -1.6980  112.5750 C.2   392  ALA392      0.2260
     47  O        -11.9160   -1.7220  111.4920 O.2   392  ALA392     -0.2867
     48  CB       -10.7410   -4.0250  113.2390 C.3   392  ALA392      0.0290
     49  N         -8.4420    0.6270  110.4330 N.3   394  LYS394     -0.1245
     50  CA        -7.0590    0.7900  110.0060 C.3   394  LYS394      0.1561
     51  C         -6.7980    2.2240  109.5680 C.2   394  LYS394      0.2260
     52  O         -7.4410    2.7250  108.6490 O.2   394  LYS394     -0.2867
     53  CB        -6.7140   -0.1960  108.8970 C.3   394  LYS394      0.0271
     54  CG        -5.2250   -0.4160  108.7340 C.3   394  LYS394      0.0035
     55  CD        -4.9200   -1.6480  107.9050 C.3   394  LYS394      0.0206
     56  CE        -3.5040   -1.5700  107.3690 C.3   394  LYS394      0.1093
     57  NZ        -3.0170   -2.9020  106.9320 N.3   394  LYS394     -0.1314
     58  N         -5.4370   -2.1570   99.1140 N.3   411  GLU411     -0.1245
     59  CA        -5.6840   -3.1540  100.1480 C.3   411  GLU411      0.1567
     60  C         -7.1800   -3.2840  100.3570 C.2   411  GLU411      0.2260
     61  O         -7.7020   -4.3930  100.4490 O.2   411  GLU411     -0.2867
     62  CB        -5.0110   -2.7690  101.4700 C.3   411  GLU411      0.0388
     63  CG        -5.2420   -3.7740  102.6000 C.3   411  GLU411      0.1160
     64  CD        -4.8900   -3.2520  104.0030 C.2   411  GLU411      0.3649
     65  OE1       -4.3120   -2.1380  104.1300 O.co2 411  GLU411     -0.2457
     66  OE2       -5.1960   -3.9790  104.9860 O.co2 411  GLU411     -0.2457
     67  N        -11.0090  -12.2560  107.4510 N.3   424  VAL424     -0.1245
     68  CA       -11.5260  -11.0520  108.1020 C.3   424  VAL424      0.1561
     69  C        -12.2010  -10.1570  107.0780 C.2   424  VAL424      0.2260
     70  O        -11.5670   -9.6230  106.1640 O.2   424  VAL424     -0.2867
     71  CB       -10.5090  -10.3040  109.0250 C.3   424  VAL424      0.0252
     72  CG1       -9.1790  -10.0460  108.3500 C.3   424  VAL424      0.0019
     73  CG2      -11.0990   -9.0050  109.4940 C.3   424  VAL424      0.0019
     74  N        -13.1610   -2.8440  109.1370 N.3   439  MET439     -0.1230
     75  CA       -13.3490   -4.2830  108.9850 C.3   439  MET439      0.1702
     76  C        -13.9130   -4.8830  110.2540 C.2   439  MET439      0.2592
     77  O        -14.0160   -4.2020  111.2820 O.2   439  MET439     -0.2718
     78  CB       -12.0370   -4.9620  108.6140 C.3   439  MET439      0.0401
     79  CG       -10.8210   -4.1000  108.8890 C.3   439  MET439      0.0596
     80  SD        -9.3280   -4.6910  108.1000 S.3   439  MET439     -0.1393
     81  CE       -10.0610   -5.2640  106.5810 C.3   439  MET439      0.0692
     82  N        -14.2990   -6.1510  110.1750 N.am  440  GLU440     -0.1966
     83  CA       -14.8510   -6.8320  111.3280 C.3   440  GLU440      0.1733
     84  C        -13.7670   -7.0100  112.3990 C.2   440  GLU440      0.2616
     85  O        -12.5700   -7.0840  112.0740 O.2   440  GLU440     -0.2715
     86  CB       -15.5360   -8.1550  110.9350 C.3   440  GLU440      0.0429
     87  CG       -14.6150   -9.2980  110.4960 C.3   440  GLU440      0.1163
     88  CD       -15.3650  -10.6120  110.1980 C.2   440  GLU440      0.3649
     89  OE1      -14.7950  -11.6860  110.4730 O.co2 440  GLU440     -0.2457
     90  OE2      -16.5150  -10.5810  109.6900 O.co2 440  GLU440     -0.2457
     91  N        -14.1870   -7.0300  113.6670 N.am  441  LEU441     -0.1963
     92  CA       -13.2560   -7.1780  114.7810 C.3   441  LEU441      0.1728
     93  C        -13.2580   -8.6030  115.3290 C.2   441  LEU441      0.2616
     94  O        -14.2910   -9.1270  115.7220 O.2   441  LEU441     -0.2715
     95  CB       -13.5720   -6.1560  115.8810 C.3   441  LEU441      0.0311
     96  CG       -12.8950   -6.2300  117.2630 C.3   441  LEU441      0.0022
     97  CD1      -11.4510   -5.7530  117.2190 C.3   441  LEU441      0.0001
     98  CD2      -13.6870   -5.4580  118.3200 C.3   441  LEU441      0.0001
     99  N        -12.0890   -9.2280  115.3350 N.am  442  CYS442     -0.1954
    100  CA       -11.9370  -10.5430  115.9290 C.3   442  CYS442      0.1843
    101  C        -11.5950  -10.3820  117.3990 C.2   442  CYS442      0.2626
    102  O        -10.4270  -10.2830  117.7840 O.2   442  CYS442     -0.2714
    103  CB       -10.8590  -11.3370  115.2160 C.3   442  CYS442      0.0997
    104  SG       -11.1780  -11.5610  113.4780 S.3   442  CYS442     -0.0797
    105  N        -12.6550  -10.3830  118.2000 N.am  443  THR443     -0.1950
    106  CA       -12.6510  -10.0020  119.6090 C.3   443  THR443      0.1897
    107  C        -11.6710  -10.7490  120.5150 C.2   443  THR443      0.2313
    108  O        -11.0850  -10.1530  121.4230 O.2   443  THR443     -0.2863
    109  CB       -14.0910  -10.0770  120.1290 C.3   443  THR443      0.1794
    110  OG1      -14.8130   -8.9780  119.5600 O.3   443  THR443     -0.2208
    111  CG2      -14.1690  -10.0120  121.6520 C.3   443  THR443      0.0378
    112  N         -8.7520  -11.8660  119.7670 N.3   445  GLY445     -0.1210
    113  CA        -7.3630  -11.4760  119.5600 C.3   445  GLY445      0.1956
    114  C         -6.5750  -12.4130  118.6820 C.2   445  GLY445      0.2611
    115  O         -7.1520  -13.2350  117.9720 O.2   445  GLY445     -0.2717
    116  N         -5.2490  -12.2920  118.7200 N.am  446  GLU446     -0.1979
    117  CA        -4.4140  -13.0830  117.8180 C.3   446  GLU446      0.1602
    118  C         -4.0700  -14.4500  118.3470 C.2   446  GLU446      0.2287
    119  O         -3.6810  -14.6120  119.4980 O.2   446  GLU446     -0.2864
    120  CB        -3.1620  -12.3380  117.3340 C.3   446  GLU446      0.0415
    121  CG        -2.2500  -11.6790  118.3830 C.3   446  GLU446      0.1163
    122  CD        -0.9290  -11.2460  117.7220 C.2   446  GLU446      0.3649
    123  OE1       -0.2360  -12.1530  117.1750 O.co2 446  GLU446     -0.2457
    124  OE2       -0.5940  -10.0240  117.7230 O.co2 446  GLU446     -0.2457
    125  N          0.6680  -15.3750  114.1930 N.3   490  ARG490     -0.1231
    126  CA         0.6140  -13.9410  114.4620 C.3   490  ARG490      0.1694
    127  C         -0.3590  -13.1890  113.5440 C.2   490  ARG490      0.2592
    128  O         -0.8600  -12.1340  113.9250 O.2   490  ARG490     -0.2718
    129  CB         2.0020  -13.3100  114.3930 C.3   490  ARG490      0.0321
    130  CG         2.4560  -12.9690  112.9990 C.3   490  ARG490      0.0489
    131  CD         3.9000  -12.5080  112.9870 C.3   490  ARG490      0.2205
    132  NE         4.3850  -12.3780  111.6180 N.pl3 490  ARG490     -0.0865
    133  CZ         5.0890  -13.3020  110.9700 C.cat 490  ARG490      0.5346
    134  NH1        5.4340  -14.4480  111.5600 N.pl3 490  ARG490      0.1354
    135  NH2        5.4620  -13.0670  109.7210 N.pl3 490  ARG490      0.1354
    136  N         -0.6290  -13.7330  112.3550 N.am  491  ASN491     -0.1974
    137  CA        -1.5810  -13.1220  111.4180 C.3   491  ASN491      0.1688
    138  C         -2.9480  -13.7760  111.3420 C.2   491  ASN491      0.2292
    139  O         -3.7650  -13.3930  110.5170 O.2   491  ASN491     -0.2864
    140  CB        -0.9920  -13.0220  110.0160 C.3   491  ASN491      0.1181
    141  CG         0.0770  -11.9970  109.9350 C.2   491  ASN491      0.2629
    142  OD1       -0.0660  -10.9130  110.4860 O.2   491  ASN491     -0.2716
    143  ND2        1.1760  -12.3250  109.2650 N.am  491  ASN491     -0.0877
    144  N         -6.5110  -14.3460  113.4770 N.3   493  LEU493     -0.1245
    145  CA        -7.2360  -13.7360  114.5870 C.3   493  LEU493      0.1561
    146  C         -8.4150  -14.6290  114.9750 C.2   493  LEU493      0.2260
    147  O         -8.9330  -15.3740  114.1370 O.2   493  LEU493     -0.2867
    148  CB        -7.6990  -12.3290  114.2080 C.3   493  LEU493      0.0270
    149  CG        -6.6080  -11.3700  113.7290 C.3   493  LEU493      0.0019
    150  CD1       -7.1580  -10.4320  112.6970 C.3   493  LEU493      0.0001
    151  CD2       -5.9910  -10.5950  114.8720 C.3   493  LEU493      0.0001
    152  N         -5.5490  -12.8840  108.0590 N.3   503  GLY503     -0.1210
    153  CA        -5.1790  -11.5200  108.4200 C.3   503  GLY503      0.1956
    154  C         -5.0810  -10.3500  107.4580 C.2   503  GLY503      0.2611
    155  O         -6.0370   -9.5680  107.3190 O.2   503  GLY503     -0.2717
    156  N         -3.9220  -10.2110  106.8130 N.am  504  ASP504     -0.1973
    157  CA        -3.4510   -8.8810  106.3850 C.3   504  ASP504      0.1709
    158  C         -4.0380   -8.2800  105.1000 C.2   504  ASP504      0.2293
    159  O         -4.6770   -7.2060  105.1470 O.2   504  ASP504     -0.2864
    160  CB        -1.9150   -8.8180  106.3300 C.3   504  ASP504      0.1436
    161  CG        -1.3570   -7.6160  107.0780 C.2   504  ASP504      0.3671
    162  OD1       -0.8570   -6.6600  106.4350 O.co2 504  ASP504     -0.2456
    163  OD2       -1.4360   -7.6300  108.3260 O.co2 504  ASP504     -0.2456
@<TRIPOS>BOND
     1    58    59    1
     2    59    60    1
     3    59    62    1
     4    60    61    2
     5    62    63    1
     6    63    64    1
     7    64    65   ar
     8    64    66   ar
     9    33    35   ar
    10    33    31   ar
    11    35    36   ar
    12   158   159    2
    13   158   157    1
    14    30    31    1
    15    30    27    1
    16    31    32   ar
    17    36    34   ar
    18    70    69    2
    19   160   157    1
    20   160   161    1
    21   157   156    1
    22   162   161   ar
    23    81    80    1
    24    27    26    1
    25    27    28    1
    26   156   154   am
    27    57    56    1
    28    32    34   ar
    29   161   163   ar
    30    69    68    1
    31   155   154    2
    32    56    55    1
    33    67    68    1
    34   154   153    1
    35    28    29    2
    36    55    54    1
    37   152   153    1
    38    80    79    1
    39    68    71    1
    40    72    71    1
    41    78    79    1
    42    78    75    1
    43    52    51    2
    44    54    53    1
    45    53    50    1
    46    75    74    1
    47    75    76    1
    48    71    73    1
    49   143   141   am
    50    51    50    1
    51    90    88   ar
    52   135   133    1
    53   141   140    1
    54   141   142    2
    55    50    49    1
    56   140   137    1
    57    82    76   am
    58    82    83    1
    59    88    89   ar
    60    88    87    1
    61    76    77    2
    62    24    23    1
    63    24    25    2
    64    87    86    1
    65   139   138    2
    66    23    22    1
    67    86    83    1
    68   133   134    1
    69   133   132    2
    70    83    84    1
    71   138   137    1
    72   137   136    1
    73    47    46    2
    74   132   131    1
    75    85    84    2
    76    43    41    1
    77    22    15   am
    78   136   127   am
    79    84    91   am
    80    46    45    1
    81   150   149    1
    82   131   130    1
    83   130   129    1
    84    16    15    2
    85    48    45    1
    86    15    14    1
    87   144   145    1
    88   104   103    1
    89    41    42    1
    90    41    38    1
    91   127   128    2
    92   127   126    1
    93    44    45    1
    94    37    38    1
    95    91    92    1
    96   149   148    1
    97   149   151    1
    98    38    39    1
    99   147   146    2
   100   125   126    1
   101   148   145    1
   102   129   126    1
   103   145   146    1
   104    14    17    1
   105    14    13    1
   106    92    93    1
   107    92    95    1
   108    39    40    2
   109   103   100    1
   110    93    99   am
   111    93    94    2
   112    99   100    1
   113    17    18    1
   114    12    11    2
   115    13    11   am
   116    11    10    1
   117    95    96    1
   118   100   101    1
   119    18    19    1
   120    10     9    1
   121     8     6    1
   122   123   122   ar
   123    97    96    1
   124    96    98    1
   125     6     5    1
   126     9     3   am
   127   120   117    1
   128   120   121    1
   129   101   102    2
   130   101   105   am
   131   122   124   ar
   132   122   121    1
   133    19    20   ar
   134    19    21   ar
   135   117   118    1
   136   117   116    1
   137   115   114    2
   138   105   106    1
   139     3     4    2
   140     3     2    1
   141   118   119    2
   142   114   116   am
   143   114   113    1
   144     1     2    1
   145     5     2    1
   146     5     7    1
   147   113   112    1
   148   110   109    1
   149   106   109    1
   150   106   107    1
   151   109   111    1
   152   107   108    2
