@<TRIPOS>MOLECULE
tmp/2j0lA00.pdb
 181 169 0 0 0
SMALL
GASTEIGER

@<TRIPOS>ATOM
      1  N         -2.0380    6.2830   -5.5240 N.3    18  ILE18      -0.1231
      2  CA        -0.9360    6.1830   -4.5550 C.3    18  ILE18       0.1692
      3  C         -0.7530    4.7730   -3.9900 C.2    18  ILE18       0.2593
      4  O          0.2300    4.4870   -3.2910 O.2    18  ILE18      -0.2718
      5  CB        -1.0700    7.2090   -3.4040 C.3    18  ILE18       0.0266
      6  CG1       -2.4870    7.1890   -2.8100 C.3    18  ILE18       0.0019
      7  CG2       -0.6930    8.6110   -3.9080 C.3    18  ILE18       0.0020
      8  CD1       -2.5960    7.7200   -1.3990 C.3    18  ILE18       0.0001
      9  N         -1.6950    3.8880   -4.3070 N.am   19  GLY19      -0.1942
     10  CA        -1.5910    2.5000   -3.9180 C.3    19  GLY19       0.2014
     11  C         -2.7660    1.6800   -4.4000 C.2    19  GLY19       0.2639
     12  O         -3.5550    2.1230   -5.2380 O.2    19  GLY19      -0.2714
     13  N         -2.8530    0.4650   -3.8680 N.am   20  GLU20      -0.1963
     14  CA        -3.9120   -0.4860   -4.1910 C.3    20  GLU20       0.1733
     15  C         -4.4150   -1.1000   -2.9010 C.2    20  GLU20       0.2617
     16  O         -3.6270   -1.4460   -2.0280 O.2    20  GLU20      -0.2715
     17  CB        -3.3820   -1.5870   -5.1100 C.3    20  GLU20       0.0429
     18  CG        -4.4560   -2.5880   -5.5820 C.3    20  GLU20       0.1163
     19  CD        -4.6710   -3.0160   -6.8150 C.2    20  GLU20       0.3649
     20  OE1       -3.6940   -3.3790   -7.5090 O.co2  20  GLU20      -0.2457
     21  OE2       -5.8410   -2.9450   -7.2590 O.co2  20  GLU20      -0.2457
     22  N         -5.7350   -1.1850   -2.7770 N.am   21  GLY21      -0.1940
     23  CA        -6.3680   -1.9530   -1.7140 C.3    21  GLY21       0.2014
     24  C         -6.9930   -3.2020   -2.3000 C.2    21  GLY21       0.2639
     25  O         -6.8780   -3.4430   -3.5020 O.2    21  GLY21      -0.2714
     26  N         -7.6630   -3.9800   -1.4510 N.am   22  GLN22      -0.1963
     27  CA        -8.3210   -5.2130   -1.8750 C.3    22  GLN22       0.1733
     28  C         -9.4870   -4.9640   -2.8340 C.2    22  GLN22       0.2616
     29  O         -9.7980   -5.8060   -3.6730 O.2    22  GLN22      -0.2715
     30  CB        -8.8060   -6.0130   -0.6590 C.3    22  GLN22       0.0408
     31  CG        -7.6870   -6.6190    0.1910 C.3    22  GLN22       0.0908
     32  CD        -6.8300   -7.6280   -0.5650 C.2    22  GLN22       0.2608
     33  OE1       -7.3270   -8.4040   -1.3870 O.2    22  GLN22      -0.2717
     34  NE2       -5.5320   -7.6230   -0.2800 N.am   22  GLN22      -0.0878
     35  N        -10.1230   -3.8020   -2.7030 N.am   23  PHE23      -0.1974
     36  CA       -11.3070   -3.4600   -3.4940 C.3    23  PHE23       0.1639
     37  C        -11.0080   -2.5720   -4.7110 C.2    23  PHE23       0.2290
     38  O        -11.8650   -2.3760   -5.5690 O.2    23  PHE23      -0.2864
     39  CB       -12.3570   -2.7960   -2.5920 C.3    23  PHE23       0.0560
     40  CG       -12.8890   -3.6970   -1.5090 C.ar   23  PHE23      -0.0200
     41  CD1      -12.2930   -3.7230   -0.2490 C.ar   23  PHE23      -0.0042
     42  CD2      -13.9820   -4.5210   -1.7480 C.ar   23  PHE23      -0.0042
     43  CE1      -12.7790   -4.5540    0.7600 C.ar   23  PHE23      -0.0003
     44  CE2      -14.4800   -5.3650   -0.7440 C.ar   23  PHE23      -0.0003
     45  CZ       -13.8740   -5.3710    0.5150 C.ar   23  PHE23      -0.0000
     46  N         -6.2370    3.1900   -4.5770 N.3    26  VAL26      -0.1245
     47  CA        -6.3310    4.2530   -3.6110 C.3    26  VAL26       0.1561
     48  C         -5.6650    5.4470   -4.2880 C.2    26  VAL26       0.2260
     49  O         -4.5980    5.3050   -4.9000 O.2    26  VAL26      -0.2867
     50  CB        -5.6220    3.9090   -2.2720 C.3    26  VAL26       0.0252
     51  CG1       -5.9550    4.9440   -1.1910 C.3    26  VAL26       0.0019
     52  CG2       -6.0050    2.4820   -1.7840 C.3    26  VAL26       0.0019
     53  N         -6.7720   10.8530    1.2520 N.3    42  ALA42      -0.1245
     54  CA        -6.7050    9.5910    0.5540 C.3    42  ALA42       0.1562
     55  C         -8.1190    9.1490    0.2080 C.2    42  ALA42       0.2260
     56  O         -9.0650    9.3240    0.9880 O.2    42  ALA42      -0.2867
     57  CB        -6.0300    8.5520    1.4130 C.3    42  ALA42       0.0290
     58  N        -10.0590    5.7820   -1.1510 N.3    44  LYS44      -0.1245
     59  CA       -10.1810    4.3800   -1.5450 C.3    44  LYS44       0.1561
     60  C        -11.3400    4.2390   -2.5150 C.2    44  LYS44       0.2260
     61  O        -12.4530    4.6860   -2.2280 O.2    44  LYS44      -0.2867
     62  CB       -10.4370    3.4770   -0.3240 C.3    44  LYS44       0.0271
     63  CG        -9.3510    3.4860    0.7350 C.3    44  LYS44       0.0035
     64  CD        -9.4370    2.2050    1.5780 C.3    44  LYS44       0.0206
     65  CE        -8.1280    1.9170    2.2610 C.3    44  LYS44       0.1093
     66  NZ        -8.2950    0.8200    3.2730 N.3    44  LYS44      -0.1314
     67  N        -15.2630   -0.9690    6.5500 N.3    61  GLU61      -0.1245
     68  CA       -14.0860   -0.3080    7.1200 C.3    61  GLU61       0.1567
     69  C        -14.4560    1.0850    7.6050 C.2    61  GLU61       0.2260
     70  O        -14.0800    1.4870    8.7100 O.2    61  GLU61      -0.2867
     71  CB       -12.9460   -0.2150    6.1020 C.3    61  GLU61       0.0388
     72  CG       -11.8520    0.7980    6.5030 C.3    61  GLU61       0.1160
     73  CD       -10.6530    0.8120    5.5750 C.2    61  GLU61       0.3649
     74  OE1       -9.5110    0.6690    6.0780 O.co2  61  GLU61      -0.2457
     75  OE2      -10.8500    0.9670    4.3510 O.co2  61  GLU61      -0.2457
     76  N         -5.6450    6.4240   11.7240 N.3    74  VAL74      -0.1245
     77  CA        -6.0880    7.0920   10.5060 C.3    74  VAL74       0.1561
     78  C         -7.5630    7.4940   10.6040 C.2    74  VAL74       0.2260
     79  O         -8.4220    6.6710   10.9140 O.2    74  VAL74      -0.2867
     80  CB        -5.8550    6.2090    9.2490 C.3    74  VAL74       0.0252
     81  CG1       -6.4360    6.8770    8.0070 C.3    74  VAL74       0.0019
     82  CG2       -4.3890    5.9730    9.0470 C.3    74  VAL74       0.0019
     83  N        -10.3540    9.5670    3.5870 N.3    89  MET89      -0.1230
     84  CA        -9.6410    9.6100    4.8570 C.3    89  MET89       0.1702
     85  C         -8.5550   10.6560    4.8540 C.2    89  MET89       0.2592
     86  O         -8.2580   11.2290    3.8070 O.2    89  MET89      -0.2718
     87  CB        -9.0650    8.2300    5.1870 C.3    89  MET89       0.0401
     88  CG        -8.6780    7.4130    3.9810 C.3    89  MET89       0.0596
     89  SD        -8.7570    5.6850    4.4160 S.3    89  MET89      -0.1393
     90  CE       -10.1470    5.7890    5.5620 C.3    89  MET89       0.0692
     91  N         -7.9810   10.9350    6.0250 N.am   90  GLU90      -0.1966
     92  CA        -6.8510   11.8520    6.0780 C.3    90  GLU90       0.1733
     93  C         -5.6800   11.1870    5.3490 C.2    90  GLU90       0.2616
     94  O         -5.4130    9.9860    5.5440 O.2    90  GLU90      -0.2715
     95  CB        -6.4640   12.2030    7.5300 C.3    90  GLU90       0.0429
     96  CG        -5.8980   11.0250    8.3460 C.3    90  GLU90       0.1163
     97  CD        -5.2950   11.4470    9.6680 C.2    90  GLU90       0.3649
     98  OE1       -5.5470   10.7550   10.6900 O.co2  90  GLU90      -0.2457
     99  OE2       -4.5600   12.4620    9.6970 O.co2  90  GLU90      -0.2457
    100  N         -5.0110   11.9600    4.4980 N.am   91  LEU91      -0.1963
    101  CA        -3.8300   11.4890    3.7860 C.3    91  LEU91       0.1728
    102  C         -2.6730   11.3850    4.7620 C.2    91  LEU91       0.2616
    103  O         -2.4140   12.3200    5.5130 O.2    91  LEU91      -0.2715
    104  CB        -3.4640   12.4280    2.6230 C.3    91  LEU91       0.0311
    105  CG        -2.3460   11.9970    1.6640 C.3    91  LEU91       0.0022
    106  CD1       -2.7690   10.8140    0.7970 C.3    91  LEU91       0.0001
    107  CD2       -1.8880   13.1660    0.7770 C.3    91  LEU91       0.0001
    108  N         -2.0060   10.2330    4.7720 N.am   92  CYS92      -0.1968
    109  CA        -0.7090   10.0980    5.4240 C.3    92  CYS92       0.1712
    110  C          0.3440   10.2510    4.3350 C.2    92  CYS92       0.2296
    111  O          0.6940    9.2760    3.6530 O.2    92  CYS92      -0.2864
    112  CB        -0.5920    8.7500    6.1410 C.3    92  CYS92       0.0983
    113  SG        -1.8020    8.5250    7.4700 S.3    92  CYS92      -0.0798
    114  N          3.4560    8.0480    3.3170 N.3    95  GLY95      -0.1210
    115  CA         3.1300    6.6960    2.8640 C.3    95  GLY95       0.1956
    116  C          3.3790    5.5620    3.8430 C.2    95  GLY95       0.2611
    117  O          3.3000    5.7450    5.0600 O.2    95  GLY95      -0.2717
    118  N          3.6730    4.3820    3.2890 N.am   96  GLU96      -0.1979
    119  CA         3.8480    3.1340    4.0460 C.3    96  GLU96       0.1602
    120  C          5.1340    3.1670    4.8820 C.2    96  GLU96       0.2287
    121  O          6.1560    3.7270    4.4500 O.2    96  GLU96      -0.2864
    122  CB         3.8560    1.9310    3.0930 C.3    96  GLU96       0.0415
    123  CG         2.5440    1.7490    2.3320 C.3    96  GLU96       0.1163
    124  CD         2.4970    0.5380    1.4070 C.2    96  GLU96       0.3649
    125  OE1        2.2950    0.7370    0.1820 O.co2  96  GLU96      -0.2457
    126  OE2        2.6150   -0.6160    1.9020 O.co2  96  GLU96      -0.2457
    127  N         -4.6810   -7.3920   12.1950 N.3   136  ASP136     -0.1239
    128  CA        -3.7350   -7.2350   11.0890 C.3   136  ASP136      0.1674
    129  C         -2.6230   -6.2260   11.4060 C.2   136  ASP136      0.2266
    130  O         -2.2410   -5.4110   10.5670 O.2   136  ASP136     -0.2867
    131  CB        -4.4610   -6.8600    9.7820 C.3   136  ASP136      0.1410
    132  CG        -3.7600   -7.4310    8.5300 C.2   136  ASP136      0.3668
    133  OD1       -4.3130   -7.3230    7.4130 O.co2 136  ASP136     -0.2456
    134  OD2       -2.6470   -7.9800    8.6660 O.co2 136  ASP136     -0.2456
    135  N          3.3650   -3.0990    7.4490 N.3   140  ARG140     -0.1231
    136  CA         2.7420   -2.8730    6.1340 C.3   140  ARG140      0.1694
    137  C          1.4620   -2.0410    6.2450 C.2   140  ARG140      0.2592
    138  O          1.0530   -1.4100    5.2860 O.2   140  ARG140     -0.2718
    139  CB         2.4510   -4.2050    5.3950 C.3   140  ARG140      0.0321
    140  CG         1.5660   -5.2010    6.1620 C.3   140  ARG140      0.0489
    141  CD         1.0620   -6.3880    5.3190 C.3   140  ARG140      0.2205
    142  NE         0.0040   -7.1180    6.0270 N.pl3 140  ARG140     -0.0865
    143  CZ         0.2020   -8.1440    6.8640 C.cat 140  ARG140      0.5346
    144  NH1        1.4240   -8.6310    7.1110 N.pl3 140  ARG140      0.1354
    145  NH2       -0.8370   -8.7170    7.4520 N.pl3 140  ARG140      0.1354
    146  N          0.8380   -2.0550    7.4200 N.am  141  ASN141     -0.1974
    147  CA        -0.4190   -1.3540    7.6540 C.3   141  ASN141      0.1688
    148  C         -0.2410   -0.1310    8.5400 C.2   141  ASN141      0.2292
    149  O         -1.2110    0.3960    9.0590 O.2   141  ASN141     -0.2864
    150  CB        -1.4390   -2.3090    8.2860 C.3   141  ASN141      0.1181
    151  CG        -1.9370   -3.3530    7.3140 C.2   141  ASN141      0.2629
    152  OD1       -2.2060   -3.0600    6.1420 O.2   141  ASN141     -0.2716
    153  ND2       -2.0800   -4.5700    7.7920 N.am  141  ASN141     -0.0877
    154  N          1.1890    3.7530    8.5630 N.3   143  LEU143     -0.1245
    155  CA         1.3970    4.8290    7.6120 C.3   143  LEU143      0.1561
    156  C          2.0480    6.0220    8.2950 C.2   143  LEU143      0.2260
    157  O          1.9600    6.1870    9.5170 O.2   143  LEU143     -0.2867
    158  CB         0.0770    5.2100    6.9230 C.3   143  LEU143      0.0270
    159  CG        -0.7190    4.1030    6.1950 C.3   143  LEU143      0.0019
    160  CD1       -2.0730    4.6180    5.7730 C.3   143  LEU143      0.0001
    161  CD2        0.0150    3.4840    5.0030 C.3   143  LEU143      0.0001
    162  N         -5.7190    0.2800    8.0800 N.3   154  ASP154     -0.1239
    163  CA        -6.2690   -1.0290    7.7080 C.3   154  ASP154      0.1674
    164  C         -7.2100   -1.6240    8.7570 C.2   154  ASP154      0.2266
    165  O         -6.8210   -2.4650    9.5640 O.2   154  ASP154     -0.2867
    166  CB        -5.1540   -2.0020    7.3260 C.3   154  ASP154      0.1410
    167  CG        -5.6650   -3.2150    6.5560 C.2   154  ASP154      0.3668
    168  OD1       -6.8760   -3.5340    6.6030 O.co2 154  ASP154     -0.2456
    169  OD2       -4.8400   -3.8650    5.8880 O.co2 154  ASP154     -0.2456
    170  N        -10.0290   -3.2870    7.8570 N.3   156  GLY156     -0.1210
    171  CA       -10.8390   -4.2620    7.1260 C.3   156  GLY156      0.1956
    172  C        -11.1270   -5.5210    7.9310 C.2   156  GLY156      0.2611
    173  O        -12.2190   -6.0800    7.8380 O.2   156  GLY156     -0.2717
    174  N        -10.1480   -5.9560    8.7240 N.am  157  LEU157     -0.1979
    175  CA       -10.2690   -7.1660    9.5490 C.3   157  LEU157      0.1596
    176  C        -10.6750   -6.9050   11.0140 C.2   157  LEU157      0.2287
    177  O        -10.8610   -7.8510   11.7870 O.2   157  LEU157     -0.2864
    178  CB        -8.9570   -7.9740    9.5130 C.3   157  LEU157      0.0297
    179  CG        -8.5400   -8.7040    8.2270 C.3   157  LEU157      0.0022
    180  CD1       -7.2420   -9.4620    8.4510 C.3   157  LEU157      0.0001
    181  CD2       -9.6320   -9.6460    7.6910 C.3   157  LEU157      0.0001
@<TRIPOS>BOND
     1    20    19   ar
     2    21    19   ar
     3    19    18    1
     4    18    17    1
     5    38    37    2
     6     1     2    1
     7    12    11    2
     8    17    14    1
     9    49    48    2
    10    37    36    1
    11    46    47    1
    12     2     3    1
    13     2     5    1
    14    11    10    1
    15    11    13   am
    16     9     3   am
    17     9    10    1
    18    48    47    1
    19    14    13    1
    20    14    15    1
    21     3     4    2
    22     7     5    1
    23    29    28    2
    24    47    50    1
    25    25    24    2
    26    36    35    1
    27    36    39    1
    28     5     6    1
    29    15    22   am
    30    15    16    2
    31    28    35   am
    32    28    27    1
    33     6     8    1
    34    22    23    1
    35    39    40    1
    36    60    61    2
    37    60    59    1
    38    24    23    1
    39    24    26   am
    40    50    52    1
    41    50    51    1
    42    27    26    1
    43    27    30    1
    44    42    40   ar
    45    42    44   ar
    46    59    58    1
    47    59    62    1
    48    40    41   ar
    49    33    32    2
    50    44    45   ar
    51    30    31    1
    52    32    34   am
    53    32    31    1
    54    62    63    1
    55    41    43   ar
    56   125   124   ar
    57    55    54    1
    58    55    56    2
    59    45    43   ar
    60    54    53    1
    61    54    57    1
    62    63    64    1
    63   107   105    1
    64   106   105    1
    65   124   126   ar
    66   124   123    1
    67    64    65    1
    68   105   104    1
    69    65    66    1
    70   123   122    1
    71   104   101    1
    72   115   114    1
    73   115   116    1
    74   122   119    1
    75   118   116   am
    76   118   119    1
    77    83    84    1
    78   111   110    2
    79   101   100    1
    80   101   102    1
    81    86    85    2
    82   116   117    2
    83    88    89    1
    84    88    87    1
    85   119   120    1
    86   110   109    1
    87    75    73   ar
    88    89    90    1
    89   121   120    2
    90   100    93   am
    91   102   108   am
    92   102   103    2
    93   108   109    1
    94    85    84    1
    95    85    91   am
    96    84    87    1
    97   161   159    1
    98   138   137    2
    99   141   142    1
   100   141   140    1
   101    93    94    2
   102    93    92    1
   103   139   136    1
   104   139   140    1
   105   109   112    1
   106    73    74   ar
   107    73    72    1
   108   160   159    1
   109   169   167   ar
   110    91    92    1
   111   142   143    2
   112    92    95    1
   113    71    72    1
   114    71    68    1
   115   136   137    1
   116   136   135    1
   117   112   113    1
   118   152   151    2
   119   159   158    1
   120   137   146   am
   121    67    68    1
   122   167   168   ar
   123   167   166    1
   124   143   144    1
   125   143   145    1
   126   158   155    1
   127    68    69    1
   128   171   170    1
   129   171   172    1
   130   151   153   am
   131   151   150    1
   132   166   163    1
   133   133   132   ar
   134   146   147    1
   135    95    96    1
   136    69    70    2
   137   155   156    1
   138   155   154    1
   139   147   150    1
   140   147   148    1
   141   181   179    1
   142   163   162    1
   143   163   164    1
   144   173   172    2
   145   172   174   am
   146    81    80    1
   147   179   180    1
   148   179   178    1
   149   156   157    2
   150    96    97    1
   151   132   134   ar
   152   132   131    1
   153   148   149    2
   154   174   175    1
   155   164   165    2
   156    82    80    1
   157    80    77    1
   158   178   175    1
   159   175   176    1
   160    97    99   ar
   161    97    98   ar
   162   131   128    1
   163    77    78    1
   164    77    76    1
   165   130   129    2
   166    78    79    2
   167   176   177    2
   168   128   129    1
   169   128   127    1
