@<TRIPOS>MOLECULE
tmp/2j0pA03.pdb
 89 83 0 0 0
SMALL
GASTEIGER

@<TRIPOS>ATOM
      1  N         28.9610   10.7400    7.2510 N.3    17  TYR17      -0.1227
      2  CA        27.8470   11.4820    7.6860 C.3    17  TYR17       0.1736
      3  C         26.6720   10.5360    7.8610 C.2    17  TYR17       0.2595
      4  O         26.7010    9.4250    7.4340 O.2    17  TYR17      -0.2718
      5  CB        27.5110   12.5000    6.6360 C.3    17  TYR17       0.0548
      6  CG        28.5310   13.5850    6.4020 C.ar   17  TYR17      -0.0200
      7  CD1       28.7340   14.0860    5.1440 C.ar   17  TYR17      -0.0009
      8  CD2       29.2220   14.1490    7.4440 C.ar   17  TYR17      -0.0009
      9  CE1       29.6390   15.0820    4.9210 C.ar   17  TYR17       0.0417
     10  CE2       30.1290   15.1620    7.2300 C.ar   17  TYR17       0.0417
     11  CZ        30.3280   15.6210    5.9590 C.ar   17  TYR17       0.1957
     12  OH        31.2080   16.6220    5.7130 O.3    17  TYR17      -0.2866
     13  N         25.6130   11.0340    8.4650 N.am   18  ALA18      -0.1966
     14  CA        24.4630   10.2280    8.6650 C.3    18  ALA18       0.1728
     15  C         23.9880    9.5110    7.4300 C.2    18  ALA18       0.2616
     16  O         23.5840    8.3980    7.4990 O.2    18  ALA18      -0.2715
     17  CB        23.3740   11.0260    9.2490 C.3    18  ALA18       0.0334
     18  N         23.9800   10.1670    6.3040 N.am   19  ARG19      -0.1977
     19  CA        23.4940    9.5080    5.1240 C.3    19  ARG19       0.1597
     20  C         24.3030    8.2490    4.8410 C.2    19  ARG19       0.2287
     21  O         23.8130    7.2780    4.3730 O.2    19  ARG19      -0.2864
     22  CB        23.5850   10.4410    3.9450 C.3    19  ARG19       0.0334
     23  CG        23.1670    9.8820    2.6150 C.3    19  ARG19       0.0492
     24  CD        23.5080   10.8220    1.4980 C.3    19  ARG19       0.2205
     25  NE        22.9290   10.4850    0.2120 N.pl3  19  ARG19      -0.0865
     26  CZ        21.8540   11.0520   -0.2880 C.cat  19  ARG19       0.5346
     27  NH1       21.2190   11.9760    0.4050 N.pl3  19  ARG19       0.1354
     28  NH2       21.3980   10.6920   -1.4510 N.pl3  19  ARG19       0.1354
     29  N         17.8960    7.1530    5.6400 N.3    29  GLU29      -0.1245
     30  CA        18.2850    8.1880    6.5820 C.3    29  GLU29       0.1567
     31  C         17.1060    8.6020    7.4600 C.2    29  GLU29       0.2260
     32  O         17.2930    9.0400    8.5990 O.2    29  GLU29      -0.2867
     33  CB        18.8680    9.3900    5.8480 C.3    29  GLU29       0.0388
     34  CG        19.7430   10.2870    6.7440 C.3    29  GLU29       0.1160
     35  CD        20.3320   11.4980    6.0220 C.2    29  GLU29       0.3649
     36  OE1       20.8330   12.4330    6.7110 O.co2  29  GLU29      -0.2457
     37  OE2       20.3080   11.5590    4.7700 O.co2  29  GLU29      -0.2457
     38  N         20.6990   23.1790    2.7820 N.3    64  ILE64      -0.1245
     39  CA        21.4040   22.1410    2.1000 C.3    64  ILE64       0.1561
     40  C         20.4960   21.1590    1.4040 C.2    64  ILE64       0.2260
     41  O         19.6560   20.5800    2.0010 O.2    64  ILE64      -0.2867
     42  CB        22.2770   21.3530    3.0940 C.3    64  ILE64       0.0252
     43  CG1       23.1930   22.3000    3.8500 C.3    64  ILE64       0.0019
     44  CG2       23.0450   20.3340    2.4150 C.3    64  ILE64       0.0019
     45  CD1       24.2180   21.6590    4.6100 C.3    64  ILE64       0.0001
     46  N         20.8190   17.9100   -1.5020 N.3    66  ARG66      -0.1245
     47  CA        21.8080   17.0840   -2.1280 C.3    66  ARG66       0.1563
     48  C         21.2280   15.8350   -2.7290 C.2    66  ARG66       0.2260
     49  O         20.1270   15.5330   -2.5180 O.2    66  ARG66      -0.2867
     50  CB        22.9000   16.6840   -1.1360 C.3    66  ARG66       0.0307
     51  CG        22.4630   15.6370   -0.1510 C.3    66  ARG66       0.0489
     52  CD        23.5920   15.0370    0.6060 C.3    66  ARG66       0.2205
     53  NE        24.4120   14.1620   -0.2060 N.pl3  66  ARG66      -0.0865
     54  CZ        25.5590   13.6380    0.1620 C.cat  66  ARG66       0.5346
     55  NH1       26.2190   12.9080   -0.6730 N.pl3  66  ARG66       0.1354
     56  NH2       26.0460   13.8480    1.3340 N.pl3  66  ARG66       0.1354
     57  N         26.3700   18.0710   -3.4490 N.3    71  VAL71      -0.1245
     58  CA        25.8070   18.7590   -2.2970 C.3    71  VAL71       0.1561
     59  C         25.8350   20.2390   -2.5910 C.2    71  VAL71       0.2260
     60  O         26.8400   20.7340   -3.0380 O.2    71  VAL71      -0.2867
     61  CB        26.7060   18.5290   -1.0530 C.3    71  VAL71       0.0252
     62  CG1       26.1160   19.1960    0.1560 C.3    71  VAL71       0.0019
     63  CG2       26.9050   17.0640   -0.8370 C.3    71  VAL71       0.0019
     64  N         16.7940   11.9170    2.2530 N.3   132  ALA132     -0.1245
     65  CA        16.7930   13.3230    2.5820 C.3   132  ALA132      0.1562
     66  C         16.4060   14.1670    1.4160 C.2   132  ALA132      0.2260
     67  O         16.8350   13.9450    0.3430 O.2   132  ALA132     -0.2867
     68  CB        18.1160   13.7420    3.0990 C.3   132  ALA132      0.0290
     69  N         17.7480   20.1170    4.1630 N.3   135  LYS135     -0.1245
     70  CA        18.1490   20.3730    5.5500 C.3   135  LYS135      0.1561
     71  C         18.3670   21.8680    5.7770 C.2   135  LYS135      0.2260
     72  O         18.9130   22.5640    4.9390 O.2   135  LYS135     -0.2867
     73  CB        19.4120   19.5840    5.8860 C.3   135  LYS135      0.0271
     74  CG        19.2010   18.0850    5.7830 C.3   135  LYS135      0.0035
     75  CD        20.4260   17.2520    6.1900 C.3   135  LYS135      0.0206
     76  CE        20.1420   15.7120    5.9470 C.3   135  LYS135      0.1093
     77  NZ        21.3570   15.0020    6.4220 N.3   135  LYS135     -0.1314
     78  N         20.0590   24.4310    8.5250 N.3   137  TYR137     -0.1241
     79  CA        20.9050   24.5830    9.6760 C.3   137  TYR137      0.1605
     80  C         20.9430   25.9810   10.2480 C.2   137  TYR137      0.2264
     81  O         20.9410   26.9140    9.5570 O.2   137  TYR137     -0.2867
     82  CB        22.3320   24.1810    9.3970 C.3   137  TYR137      0.0534
     83  CG        22.5310   22.7090    9.3030 C.ar  137  TYR137     -0.0201
     84  CD1       22.9730   21.9980   10.3580 C.ar  137  TYR137     -0.0009
     85  CD2       22.2590   22.0550    8.1580 C.ar  137  TYR137     -0.0009
     86  CE1       23.1430   20.6630   10.2650 C.ar  137  TYR137      0.0417
     87  CE2       22.4080   20.7510    8.0550 C.ar  137  TYR137      0.0417
     88  CZ        22.8620   20.0460    9.0870 C.ar  137  TYR137      0.1957
     89  OH        23.0010   18.7090    8.9490 O.3   137  TYR137     -0.2866
@<TRIPOS>BOND
     1    57    58    1
     2    60    59    2
     3    48    49    2
     4    48    47    1
     5    59    58    1
     6    58    61    1
     7    47    46    1
     8    47    50    1
     9    28    26    1
    10    50    51    1
    11    61    63    1
    12    61    62    1
    13    55    54    1
    14    26    25    2
    15    26    27    1
    16    53    54    2
    17    53    52    1
    18    51    52    1
    19    54    56    1
    20    25    24    1
    21    67    66    2
    22    40    41    2
    23    40    39    1
    24    66    65    1
    25    24    23    1
    26    39    38    1
    27    39    42    1
    28    64    65    1
    29    44    42    1
    30    65    68    1
    31    23    22    1
    32    42    43    1
    33    43    45    1
    34    22    19    1
    35    69    70    1
    36    21    20    2
    37    37    35   ar
    38    20    19    1
    39     9     7   ar
    40     9    11   ar
    41    72    71    2
    42    19    18    1
    43     7     6   ar
    44    70    71    1
    45    70    73    1
    46    29    30    1
    47    12    11    1
    48    74    73    1
    49    74    75    1
    50    33    30    1
    51    33    34    1
    52    76    75    1
    53    76    77    1
    54    11    10   ar
    55    35    36   ar
    56    35    34    1
    57    18    15   am
    58     6     5    1
    59     6     8   ar
    60    30    31    1
    61     5     2    1
    62    10     8   ar
    63     1     2    1
    64    15    16    2
    65    15    14    1
    66     4     3    2
    67    31    32    2
    68     2     3    1
    69     3    13   am
    70    87    85   ar
    71    87    88   ar
    72    85    83   ar
    73    13    14    1
    74    78    79    1
    75    14    17    1
    76    89    88    1
    77    88    86   ar
    78    83    82    1
    79    83    84   ar
    80    82    79    1
    81    81    80    2
    82    79    80    1
    83    86    84   ar
