@<TRIPOS>MOLECULE
tmp/2j0pA00.pdb
 215 204 0 0 0
SMALL
GASTEIGER

@<TRIPOS>ATOM
      1  N          3.8680   21.9900   -7.1870 N.3    87  ALA87      -0.1231
      2  CA         5.1120   22.6010   -7.5900 C.3    87  ALA87       0.1694
      3  C          5.3020   23.9220   -6.8780 C.2    87  ALA87       0.2593
      4  O          4.6920   24.8780   -7.2000 O.2    87  ALA87      -0.2718
      5  CB         5.1480   22.7690   -9.0040 C.3    87  ALA87       0.0304
      6  N          6.1640   23.9240   -5.8880 N.am   88  GLY88      -0.1942
      7  CA         6.3870   25.0910   -5.1030 C.3    88  GLY88       0.2014
      8  C          7.6620   25.8350   -5.3500 C.2    88  GLY88       0.2638
      9  O          8.5510   25.3270   -5.8910 O.2    88  GLY88      -0.2714
     10  N          7.6730   27.0820   -4.9660 N.am   89  LEU89      -0.1977
     11  CA         8.8510   27.8710   -5.0780 C.3    89  LEU89       0.1596
     12  C          9.1640   28.7760   -3.9380 C.2    89  LEU89       0.2287
     13  O          8.3290   29.2310   -3.2660 O.2    89  LEU89      -0.2864
     14  CB         8.9870   28.5780   -6.4010 C.3    89  LEU89       0.0297
     15  CG         7.8480   29.3810   -6.9170 C.3    89  LEU89       0.0022
     16  CD1        8.3190   30.3910   -7.8930 C.3    89  LEU89       0.0001
     17  CD2        6.8110   28.5470   -7.4820 C.3    89  LEU89       0.0001
     18  N         11.4400   31.8180   -4.1500 N.3    91  LEU91      -0.1245
     19  CA        12.0060   32.5720   -5.2120 C.3    91  LEU91       0.1561
     20  C         12.9300   33.6950   -4.8220 C.2    91  LEU91       0.2260
     21  O         12.5120   34.7580   -4.6230 O.2    91  LEU91      -0.2867
     22  CB        10.8790   33.0800   -6.0740 C.3    91  LEU91       0.0270
     23  CG        11.2700   33.8550   -7.2990 C.3    91  LEU91       0.0019
     24  CD1       12.0720   32.9610   -8.1760 C.3    91  LEU91       0.0001
     25  CD2       10.0020   34.2440   -7.9950 C.3    91  LEU91       0.0001
     26  N         13.1120   25.0060   -5.7280 N.3    99  ARG99      -0.1231
     27  CA        12.0080   24.4940   -6.4810 C.3    99  ARG99       0.1694
     28  C         11.6220   23.2020   -5.7900 C.2    99  ARG99       0.2592
     29  O         12.4160   22.3610   -5.5900 O.2    99  ARG99      -0.2718
     30  CB        12.3960   24.2620   -7.9100 C.3    99  ARG99       0.0321
     31  CG        12.9350   25.4810   -8.5650 C.3    99  ARG99       0.0489
     32  CD        11.9480   26.5990   -8.5950 C.3    99  ARG99       0.2205
     33  NE        12.4850   27.7070   -9.3230 N.pl3  99  ARG99      -0.0865
     34  CZ        13.0470   28.7710   -8.8100 C.cat  99  ARG99       0.5346
     35  NH1       13.5120   29.6820   -9.6130 N.pl3  99  ARG99       0.1354
     36  NH2       13.1470   28.9580   -7.5210 N.pl3  99  ARG99       0.1354
     37  N         10.3720   23.1280   -5.3780 N.am  100  LEU100     -0.1966
     38  CA         9.8540   22.0310   -4.6180 C.3   100  LEU100      0.1728
     39  C          8.7740   21.1540   -5.2060 C.2   100  LEU100      0.2616
     40  O          7.8600   21.6210   -5.7300 O.2   100  LEU100     -0.2715
     41  CB         9.3370   22.5530   -3.2810 C.3   100  LEU100      0.0311
     42  CG        10.1540   23.6410   -2.6150 C.3   100  LEU100      0.0022
     43  CD1        9.4330   24.2120   -1.5200 C.3   100  LEU100      0.0001
     44  CD2       11.3070   23.0240   -2.0540 C.3   100  LEU100      0.0001
     45  N          8.9030   19.8630   -5.0500 N.am  101  PHE101     -0.1974
     46  CA         7.8890   18.9480   -5.5110 C.3   101  PHE101      0.1639
     47  C          7.3110   18.3760   -4.2600 C.2   101  PHE101      0.2290
     48  O          7.7030   17.3720   -3.7980 O.2   101  PHE101     -0.2864
     49  CB         8.4420   17.9150   -6.4500 C.3   101  PHE101      0.0560
     50  CG         9.1490   18.4970   -7.6030 C.ar  101  PHE101     -0.0200
     51  CD1        8.4910   18.7970   -8.7420 C.ar  101  PHE101     -0.0042
     52  CD2       10.4650   18.7900   -7.5280 C.ar  101  PHE101     -0.0042
     53  CE1        9.1250   19.3420   -9.7740 C.ar  101  PHE101     -0.0003
     54  CE2       11.1130   19.3400   -8.5680 C.ar  101  PHE101     -0.0003
     55  CZ        10.4540   19.6220   -9.6900 C.ar  101  PHE101     -0.0000
     56  N          8.2740   26.3470  -23.4510 N.3   181  ASP181     -0.1225
     57  CA         9.0440   26.7140  -22.2990 C.3   181  ASP181      0.1805
     58  C          9.6960   25.5010  -21.6360 C.2   181  ASP181      0.2598
     59  O          9.1740   24.4140  -21.6720 O.2   181  ASP181     -0.2718
     60  CB         8.2100   27.4990  -21.3210 C.3   181  ASP181      0.1424
     61  CG         9.0050   27.9260  -20.1480 C.2   181  ASP181      0.3668
     62  OD1        9.9710   28.6580  -20.3500 O.co2 181  ASP181     -0.2456
     63  OD2        8.7310   27.4720  -19.0490 O.co2 181  ASP181     -0.2456
     64  N         10.8590   25.6970  -21.0280 N.am  182  VAL182     -0.1966
     65  CA        11.5360   24.5890  -20.4230 C.3   182  VAL182      0.1727
     66  C         10.7320   23.8580  -19.4120 C.2   182  VAL182      0.2616
     67  O         10.7970   22.6650  -19.3240 O.2   182  VAL182     -0.2715
     68  CB        12.8960   24.9050  -19.8300 C.3   182  VAL182      0.0290
     69  CG1       13.8100   25.4390  -20.8090 C.3   182  VAL182      0.0023
     70  CG2       12.7800   25.7940  -18.6600 C.3   182  VAL182      0.0023
     71  N          9.9590   24.5930  -18.6340 N.am  183  HIS183     -0.1973
     72  CA         9.1560   23.9600  -17.6200 C.3   183  HIS183      0.1656
     73  C          8.2040   22.8740  -18.1390 C.2   183  HIS183      0.2291
     74  O          7.7120   22.0880  -17.3850 O.2   183  HIS183     -0.2864
     75  CB         8.5230   24.9690  -16.6560 C.3   183  HIS183      0.0771
     76  CG         9.5180   25.8460  -15.9660 C.ar  183  HIS183      0.0820
     77  ND1        9.9280   27.0490  -16.4750 N.ar  183  HIS183     -0.2267
     78  CD2       10.2200   25.6700  -14.8260 C.ar  183  HIS183      0.1154
     79  CE1       10.8290   27.5830  -15.6740 C.ar  183  HIS183      0.1986
     80  NE2       11.0190   26.7650  -14.6640 N.ar  183  HIS183     -0.2212
     81  N          9.1000   20.3660  -19.9400 N.3   185  PHE185     -0.1227
     82  CA         9.8580   19.1600  -20.0620 C.3   185  PHE185      0.1736
     83  C          9.4240   18.0650  -19.1040 C.2   185  PHE185      0.2595
     84  O          9.3850   16.9410  -19.4850 O.2   185  PHE185     -0.2718
     85  CB        11.3570   19.4790  -19.9880 C.3   185  PHE185      0.0547
     86  CG        12.2600   18.3470  -20.3610 C.ar  185  PHE185     -0.0202
     87  CD1       13.0930   17.8130  -19.4500 C.ar  185  PHE185     -0.0042
     88  CD2       12.3100   17.8530  -21.6150 C.ar  185  PHE185     -0.0042
     89  CE1       13.9150   16.8170  -19.7400 C.ar  185  PHE185     -0.0003
     90  CE2       13.1470   16.8430  -21.9060 C.ar  185  PHE185     -0.0003
     91  CZ        13.9630   16.3290  -20.9580 C.ar  185  PHE185     -0.0000
     92  N          9.0950   18.3880  -17.8560 N.am  186  PHE186     -0.1976
     93  CA         8.6780   17.3530  -16.9160 C.3   186  PHE186      0.1639
     94  C          7.4330   16.6230  -17.3680 C.2   186  PHE186      0.2290
     95  O          7.3620   15.4540  -17.2490 O.2   186  PHE186     -0.2864
     96  CB         8.4830   17.8460  -15.4760 C.3   186  PHE186      0.0560
     97  CG         9.3750   18.9840  -15.0810 C.ar  186  PHE186     -0.0200
     98  CD1        8.8630   20.1210  -14.4930 C.ar  186  PHE186     -0.0042
     99  CD2       10.7220   18.9160  -15.2800 C.ar  186  PHE186     -0.0042
    100  CE1        9.6650   21.1700  -14.1510 C.ar  186  PHE186     -0.0003
    101  CE2       11.5230   19.9670  -14.9220 C.ar  186  PHE186     -0.0003
    102  CZ        10.9880   21.0890  -14.3570 C.ar  186  PHE186     -0.0000
    103  N         15.3760   11.1350  -18.1890 N.3   196  ARG196     -0.1245
    104  CA        16.0250   12.2160  -18.8860 C.3   196  ARG196      0.1563
    105  C         16.9740   11.6290  -19.9170 C.2   196  ARG196      0.2260
    106  O         16.9310   12.0290  -21.0230 O.2   196  ARG196     -0.2867
    107  CB        16.7910   13.1330  -17.9270 C.3   196  ARG196      0.0307
    108  CG        15.9220   13.8840  -16.9730 C.3   196  ARG196      0.0489
    109  CD        16.6070   14.9430  -16.1730 C.3   196  ARG196      0.2205
    110  NE        16.9670   16.0610  -17.0110 N.pl3 196  ARG196     -0.0865
    111  CZ        16.2680   17.1810  -17.1440 C.cat 196  ARG196      0.5346
    112  NH1       16.6980   18.1340  -17.9230 N.pl3 196  ARG196      0.1354
    113  NH2       15.1420   17.3320  -16.4770 N.pl3 196  ARG196      0.1354
    114  N         24.1970   29.5110  -13.5950 N.3   231  MET231     -0.1245
    115  CA        23.2650   28.9030  -12.6650 C.3   231  MET231      0.1570
    116  C         23.6710   27.4770  -12.4270 C.2   231  MET231      0.2261
    117  O         23.9490   26.8360  -13.3220 O.2   231  MET231     -0.2867
    118  CB        21.8600   28.8500  -13.2550 C.3   231  MET231      0.0387
    119  CG        21.2770   30.1610  -13.5230 C.3   231  MET231      0.0595
    120  SD        19.6800   30.1300  -14.3200 S.3   231  MET231     -0.1393
    121  CE        18.6970   29.6350  -12.9720 C.3   231  MET231      0.0692
    122  N         22.2160   23.9510  -10.7210 N.3   233  PHE233     -0.1241
    123  CA        21.0720   23.3210  -10.1280 C.3   233  PHE233      0.1605
    124  C         21.5040   21.9940   -9.5260 C.2   233  PHE233      0.2264
    125  O         22.1020   21.2400  -10.1790 O.2   233  PHE233     -0.2867
    126  CB        20.0520   22.9440  -11.1960 C.3   233  PHE233      0.0534
    127  CG        19.3040   24.0820  -11.8510 C.ar  233  PHE233     -0.0203
    128  CD1       17.9470   24.0810  -11.8910 C.ar  233  PHE233     -0.0042
    129  CD2       19.9400   25.0630  -12.5230 C.ar  233  PHE233     -0.0042
    130  CE1       17.2840   25.0500  -12.4820 C.ar  233  PHE233     -0.0003
    131  CE2       19.2410   26.0220  -13.1310 C.ar  233  PHE233     -0.0003
    132  CZ        17.9260   26.0140  -13.1080 C.ar  233  PHE233     -0.0000
    133  N         15.0060   20.9740   -5.6110 N.3   240  VAL240     -0.1245
    134  CA        16.0550   21.4940   -6.4570 C.3   240  VAL240      0.1561
    135  C         16.4460   22.8650   -5.9290 C.2   240  VAL240      0.2260
    136  O         15.6580   23.6970   -5.7860 O.2   240  VAL240     -0.2867
    137  CB        15.6390   21.6020   -7.9220 C.3   240  VAL240      0.0252
    138  CG1       16.8020   21.9890   -8.8010 C.3   240  VAL240      0.0019
    139  CG2       15.1190   20.3240   -8.3920 C.3   240  VAL240      0.0019
    140  N         19.0320   26.1780   -6.4440 N.3   242  ILE242     -0.1245
    141  CA        19.6830   26.8520   -7.5410 C.3   242  ILE242      0.1561
    142  C         20.5660   27.9700   -7.1450 C.2   242  ILE242      0.2260
    143  O         20.1430   28.8080   -6.4710 O.2   242  ILE242     -0.2867
    144  CB        18.6030   27.4690   -8.4870 C.3   242  ILE242      0.0252
    145  CG1       17.5560   26.4370   -8.8340 C.3   242  ILE242      0.0019
    146  CG2       19.1870   28.0700   -9.7220 C.3   242  ILE242      0.0019
    147  CD1       16.4040   26.9690   -9.4500 C.3   242  ILE242      0.0001
    148  N         16.6110   23.4620  -25.1360 N.3   281  LYS281     -0.1245
    149  CA        15.1870   23.4740  -24.9720 C.3   281  LYS281      0.1561
    150  C         14.6240   24.8120  -25.3290 C.2   281  LYS281      0.2260
    151  O         15.1780   25.7940  -25.0420 O.2   281  LYS281     -0.2867
    152  CB        14.8500   23.0880  -23.5370 C.3   281  LYS281      0.0271
    153  CG        15.3930   21.7750  -23.1550 C.3   281  LYS281      0.0035
    154  CD        15.0060   21.3870  -21.7670 C.3   281  LYS281      0.0206
    155  CE        15.6490   20.1540  -21.3490 C.3   281  LYS281      0.1093
    156  NZ        16.9940   20.3840  -20.8570 N.3   281  LYS281     -0.1314
    157  N         12.2370   28.2140  -25.6650 N.3   283  THR283     -0.1218
    158  CA        11.5590   29.1920  -24.8410 C.3   283  THR283      0.1862
    159  C         11.1210   30.3860  -25.6510 C.2   283  THR283      0.2287
    160  O         11.5850   30.6180  -26.7210 O.2   283  THR283     -0.2866
    161  CB        12.3220   29.6550  -23.6320 C.3   283  THR283      0.1770
    162  OG1       13.0880   30.8050  -23.9230 O.3   283  THR283     -0.2211
    163  CG2       13.1770   28.6040  -23.0750 C.3   283  THR283      0.0375
    164  N         17.5310   27.6700  -24.8180 N.3   288  VAL288     -0.1245
    165  CA        18.3810   27.6990  -23.6620 C.3   288  VAL288      0.1561
    166  C         19.1670   26.3860  -23.6400 C.2   288  VAL288      0.2260
    167  O         18.6540   25.3470  -23.8980 O.2   288  VAL288     -0.2867
    168  CB        17.6490   27.9590  -22.3640 C.3   288  VAL288      0.0252
    169  CG1       17.1180   29.3190  -22.3860 C.3   288  VAL288      0.0019
    170  CG2       16.5940   26.9950  -22.1480 C.3   288  VAL288      0.0019
    171  N         23.0680   20.2550  -12.9700 N.3   303  GLN303     -0.1245
    172  CA        22.8550   20.8880  -14.2350 C.3   303  GLN303      0.1566
    173  C         23.1910   22.3640  -14.2210 C.2   303  GLN303      0.2260
    174  O         22.9940   23.0200  -13.2660 O.2   303  GLN303     -0.2867
    175  CB        21.5380   20.4950  -14.8600 C.3   303  GLN303      0.0367
    176  CG        20.5570   21.5220  -14.9470 C.3   303  GLN303      0.0905
    177  CD        19.2670   21.0730  -15.6210 C.2   303  GLN303      0.2608
    178  OE1       19.1350   21.1470  -16.8180 O.2   303  GLN303     -0.2717
    179  NE2       18.3180   20.6440  -14.8400 N.am  303  GLN303     -0.0878
    180  N         23.2910   26.1950  -16.3480 N.3   305  TYR305     -0.1227
    181  CA        22.6900   27.0580  -17.3260 C.3   305  TYR305      0.1736
    182  C         23.3710   28.4070  -17.1540 C.2   305  TYR305      0.2596
    183  O         24.0520   28.6120  -16.2590 O.2   305  TYR305     -0.2718
    184  CB        21.2320   27.2920  -16.9920 C.3   305  TYR305      0.0548
    185  CG        20.2180   26.3800  -17.6380 C.ar  305  TYR305     -0.0200
    186  CD1       19.5100   25.4730  -16.9170 C.ar  305  TYR305     -0.0009
    187  CD2       19.9560   26.4560  -18.9690 C.ar  305  TYR305     -0.0009
    188  CE1       18.6010   24.6720  -17.5140 C.ar  305  TYR305      0.0417
    189  CE2       19.0770   25.6930  -19.5410 C.ar  305  TYR305      0.0417
    190  CZ        18.3880   24.8000  -18.8360 C.ar  305  TYR305      0.1957
    191  OH        17.4980   24.0410  -19.4810 O.3   305  TYR305     -0.2866
    192  N         23.1370   29.3180  -18.0540 N.am  306  GLY306     -0.1957
    193  CA        23.6810   30.6310  -17.8940 C.3   306  GLY306      0.1869
    194  C         22.5910   31.4590  -17.2360 C.2   306  GLY306      0.2309
    195  O         21.4590   31.1600  -17.3560 O.2   306  GLY306     -0.2863
    196  N         19.8390   34.0430  -16.7440 N.3   308  ARG308     -0.1245
    197  CA        18.8810   34.6150  -17.6610 C.3   308  ARG308      0.1563
    198  C         17.6300   35.1120  -16.9680 C.2   308  ARG308      0.2260
    199  O         17.1730   34.5000  -16.0750 O.2   308  ARG308     -0.2867
    200  CB        18.4290   33.5800  -18.6550 C.3   308  ARG308      0.0307
    201  CG        17.7250   34.1330  -19.8080 C.3   308  ARG308      0.0489
    202  CD        17.3720   33.0820  -20.7840 C.3   308  ARG308      0.2205
    203  NE        16.2650   32.2660  -20.3980 N.pl3 308  ARG308     -0.0865
    204  CZ        15.0140   32.5930  -20.5890 C.cat 308  ARG308      0.5346
    205  NH1       14.0660   31.7850  -20.2150 N.pl3 308  ARG308      0.1354
    206  NH2       14.7190   33.7470  -21.1400 N.pl3 308  ARG308      0.1354
    207  N         13.4840   36.5390  -17.7050 N.3   310  GLU310     -0.1245
    208  CA        12.4470   36.5290  -18.7010 C.3   310  GLU310      0.1567
    209  C         12.5340   37.7340  -19.5790 C.2   310  GLU310      0.2260
    210  O         12.7320   38.8200  -19.0970 O.2   310  GLU310     -0.2867
    211  CB        11.0810   36.5160  -18.0670 C.3   310  GLU310      0.0388
    212  CG        10.0000   36.7070  -19.0870 C.3   310  GLU310      0.1160
    213  CD         8.6150   36.6570  -18.5100 C.2   310  GLU310      0.3649
    214  OE1        8.4520   36.0680  -17.4420 O.co2 310  GLU310     -0.2457
    215  OE2        7.6860   37.2070  -19.1230 O.co2 310  GLU310     -0.2457
@<TRIPOS>BOND
     1   160   159    2
     2   157   158    1
     3   159   158    1
     4   150   151    2
     5   150   149    1
     6   148   149    1
     7   149   152    1
     8   158   161    1
     9   164   165    1
    10   162   161    1
    11   167   166    2
    12   165   166    1
    13   165   168    1
    14   161   163    1
    15   152   153    1
    16    56    57    1
    17   153   154    1
    18   169   168    1
    19   168   170    1
    20    57    58    1
    21    57    60    1
    22    90    88   ar
    23    90    91   ar
    24   154   155    1
    25    59    58    2
    26    58    64   am
    27    88    86   ar
    28   155   156    1
    29    60    61    1
    30   206   204    1
    31    64    65    1
    32   106   105    2
    33    91    89   ar
    34    69    68    1
    35   202   203    1
    36   202   201    1
    37   204   203    2
    38   204   205    1
    39    65    68    1
    40    65    66    1
    41    86    85    1
    42    86    87   ar
    43    62    61   ar
    44    61    63   ar
    45    82    85    1
    46    82    81    1
    47    82    83    1
    48   105   104    1
    49    68    70    1
    50   201   200    1
    51    89    87   ar
    52   209   210    2
    53   209   208    1
    54   189   187   ar
    55   189   190   ar
    56    84    83    2
    57   191   190    1
    58    66    67    2
    59    66    71   am
    60   215   213   ar
    61    83    92   am
    62   212   213    1
    63   212   211    1
    64   187   185   ar
    65   104   103    1
    66   104   107    1
    67   190   188   ar
    68   208   211    1
    69   208   207    1
    70   200   197    1
    71    71    72    1
    72   213   214   ar
    73    73    72    1
    74    73    74    2
    75   192   193    1
    76   192   182   am
    77   107   108    1
    78   112   111    1
    79   193   194    1
    80    92    93    1
    81   197   198    1
    82   197   196    1
    83   185   184    1
    84   185   186   ar
    85    72    75    1
    86   188   186   ar
    87    94    95    2
    88    94    93    1
    89   195   194    2
    90   181   182    1
    91   181   184    1
    92   181   180    1
    93   182   183    2
    94   111   110    2
    95   111   113    1
    96   110   109    1
    97   108   109    1
    98   198   199    2
    99    93    96    1
   100   178   177    2
   101    75    76    1
   102    77    76   ar
   103    77    79   ar
   104    76    78   ar
   105    79    80   ar
   106   177   176    1
   107   177   179   am
   108    96    97    1
   109    99    97   ar
   110    99   101   ar
   111    97    98   ar
   112   176   175    1
   113   101   102   ar
   114   175   172    1
   115    78    80   ar
   116    98   100   ar
   117   102   100   ar
   118   120   119    1
   119   120   121    1
   120   172   173    1
   121   172   171    1
   122   173   174    2
   123   114   115    1
   124   119   118    1
   125   117   116    2
   126   118   115    1
   127   131   132   ar
   128   131   129   ar
   129   132   130   ar
   130   115   116    1
   131   129   127   ar
   132   130   128   ar
   133   128   127   ar
   134   127   126    1
   135   126   123    1
   136   122   123    1
   137   125   124    2
   138   123   124    1
   139    53    55   ar
   140    53    51   ar
   141   146   144    1
   142    55    54   ar
   143    35    34    1
   144   147   145    1
   145    33    34    2
   146    33    32    1
   147     5     2    1
   148   145   144    1
   149    34    36    1
   150   138   137    1
   151    51    50   ar
   152    32    31    1
   153    54    52   ar
   154    31    30    1
   155   144   141    1
   156   139   137    1
   157    24    23    1
   158    25    23    1
   159   137   134    1
   160    30    27    1
   161    16    15    1
   162    50    52   ar
   163    50    49    1
   164     2     1    1
   165     2     3    1
   166   141   142    1
   167   141   140    1
   168    17    15    1
   169    23    22    1
   170     4     3    2
   171   142   143    2
   172    15    14    1
   173     3     6   am
   174    27    28    1
   175    27    26    1
   176   134   135    1
   177   134   133    1
   178    49    46    1
   179    14    11    1
   180    22    19    1
   181   135   136    2
   182     9     8    2
   183     6     7    1
   184    28    29    2
   185    28    37   am
   186    40    39    2
   187    46    45    1
   188    46    47    1
   189    37    38    1
   190     8     7    1
   191     8    10   am
   192    19    20    1
   193    19    18    1
   194    39    45   am
   195    39    38    1
   196    11    10    1
   197    11    12    1
   198    20    21    2
   199    38    41    1
   200    47    48    2
   201    12    13    2
   202    41    42    1
   203    42    44    1
   204    42    43    1
