@<TRIPOS>MOLECULE
tmp/2j0pA01.pdb
 80 75 0 0 0
SMALL
GASTEIGER

@<TRIPOS>ATOM
      1  N         14.3380   11.2850   20.7450 N.3    38  SER38      -0.1202
      2  CA        14.4140   11.1910   22.1840 C.3    38  SER38       0.2020
      3  C         15.8490   11.2050   22.6570 C.2    38  SER38       0.2619
      4  O         16.1310   11.3080   23.8020 O.2    38  SER38      -0.2717
      5  CB        13.6130   10.0190   22.7420 C.3    38  SER38       0.2103
      6  OG        14.3700    8.8520   22.7560 O.3    38  SER38      -0.2182
      7  N         16.7650   11.0930   21.7240 N.am   39  HIS39      -0.1961
      8  CA        18.1650   11.1130   22.0310 C.3    39  HIS39       0.1787
      9  C         18.6900   12.4440   21.5770 C.2    39  HIS39       0.2620
     10  O         18.9190   13.2950   22.3630 O.2    39  HIS39      -0.2715
     11  CB        18.8810    9.9590   21.3680 C.3    39  HIS39       0.0785
     12  CG        18.3830    8.6210   21.8090 C.ar   39  HIS39       0.0821
     13  ND1       18.5200    8.1750   23.0980 N.ar   39  HIS39      -0.2267
     14  CD2       17.7040    7.6590   21.1530 C.ar   39  HIS39       0.1154
     15  CE1       17.9610    6.9950   23.2070 C.ar   39  HIS39       0.1986
     16  NE2       17.4500    6.6600   22.0470 N.ar   39  HIS39      -0.2212
     17  N         18.8160   12.6350   20.2840 N.am   40  ASP40      -0.1957
     18  CA        19.2420   13.9240   19.7930 C.3    40  ASP40       0.1840
     19  C         18.3370   14.4750   18.6860 C.2    40  ASP40       0.2622
     20  O         18.6790   15.3990   18.0200 O.2    40  ASP40      -0.2715
     21  CB        20.7270   13.9810   19.4370 C.3    40  ASP40       0.1450
     22  CG        21.1040   12.9980   18.3860 C.2    40  ASP40       0.3671
     23  OD1       20.2410   12.3570   17.8830 O.co2  40  ASP40      -0.2456
     24  OD2       22.2830   12.8720   18.0500 O.co2  40  ASP40      -0.2456
     25  N         17.1610   13.9020   18.5650 N.am   41  ALA41      -0.1963
     26  CA        16.1880   14.3280   17.6070 C.3    41  ALA41       0.1728
     27  C         14.7970   14.2900   18.1540 C.2    41  ALA41       0.2616
     28  O         14.5360   13.5860   19.0700 O.2    41  ALA41      -0.2715
     29  CB        16.2430   13.4970   16.4240 C.3    41  ALA41       0.0334
     30  N         13.9340   15.0890   17.5680 N.am   42  LYS42      -0.1977
     31  CA        12.5430   15.1100   17.8820 C.3    42  LYS42       0.1596
     32  C         11.7790   15.1120   16.5800 C.2    42  LYS42       0.2287
     33  O         12.2360   15.6070   15.5980 O.2    42  LYS42      -0.2864
     34  CB        12.1390   16.2920   18.7140 C.3    42  LYS42       0.0298
     35  CG        12.6450   16.2240   20.0860 C.3    42  LYS42       0.0038
     36  CD        11.8750   17.0070   21.1020 C.3    42  LYS42       0.0206
     37  CE        12.6670   18.0750   21.7810 C.3    42  LYS42       0.1093
     38  NZ        13.6710   17.7590   22.7600 N.3    42  LYS42      -0.1314
     39  N         13.7680   17.4140   13.8410 N.3   110  THR110     -0.1218
     40  CA        14.6740   18.4210   14.2800 C.3   110  THR110      0.1862
     41  C         15.7820   17.7890   15.1130 C.2   110  THR110      0.2287
     42  O         15.5320   16.9310   15.8730 O.2   110  THR110     -0.2866
     43  CB        14.0660   19.5560   15.0100 C.3   110  THR110      0.1770
     44  OG1       15.0650   20.5190   15.2550 O.3   110  THR110     -0.2211
     45  CG2       13.5420   19.1650   16.3070 C.3   110  THR110      0.0375
     46  N         19.5670   18.2390   17.4060 N.3   112  THR112     -0.1218
     47  CA        20.5230   19.0450   18.0970 C.3   112  THR112      0.1862
     48  C         21.5770   18.0160   18.4200 C.2   112  THR112      0.2287
     49  O         21.4240   17.2410   19.3030 O.2   112  THR112     -0.2866
     50  CB        20.0330   19.6750   19.3610 C.3   112  THR112      0.1770
     51  OG1       19.0480   20.6290   19.0620 O.3   112  THR112     -0.2211
     52  CG2       21.1260   20.3530   19.9860 C.3   112  THR112      0.0375
     53  N         10.0180   25.5890   16.7520 N.3   151  LEU151     -0.1231
     54  CA        10.1010   24.2390   17.1960 C.3   151  LEU151      0.1693
     55  C          9.0260   23.9490   18.2340 C.2   151  LEU151      0.2591
     56  O          8.4440   22.9430   18.2130 O.2   151  LEU151     -0.2718
     57  CB        11.4790   23.9130   17.7300 C.3   151  LEU151      0.0284
     58  CG        12.6110   23.9500   16.7270 C.3   151  LEU151      0.0019
     59  CD1       13.8790   23.6110   17.3380 C.3   151  LEU151      0.0001
     60  CD2       12.3340   23.0410   15.6530 C.3   151  LEU151      0.0001
     61  N          8.7990   24.8760   19.1330 N.am  152  ALA152     -0.1980
     62  CA         7.7840   24.6850   20.1570 C.3   152  ALA152      0.1597
     63  C          6.4240   24.4250   19.5670 C.2   152  ALA152      0.2287
     64  O          5.6300   23.7220   20.1330 O.2   152  ALA152     -0.2864
     65  CB         7.7330   25.8490   21.0670 C.3   152  ALA152      0.0319
     66  N          7.0020   20.6340   17.1980 N.3   155  ILE155     -0.1245
     67  CA         7.4650   19.4060   17.7640 C.3   155  ILE155      0.1561
     68  C          6.2580   18.5920   18.2350 C.2   155  ILE155      0.2260
     69  O          5.3160   19.1320   18.7260 O.2   155  ILE155     -0.2867
     70  CB         8.3570   19.6850   18.9210 C.3   155  ILE155      0.0252
     71  CG1        9.7710   19.9630   18.4690 C.3   155  ILE155      0.0019
     72  CG2        8.3930   18.5470   19.8270 C.3   155  ILE155      0.0019
     73  CD1       10.6190   20.5160   19.5090 C.3   155  ILE155      0.0001
     74  N          5.0490   14.9770   20.4330 N.3   157  THR157     -0.1218
     75  CA         5.4400   13.9820   21.4160 C.3   157  THR157      0.1862
     76  C          5.4720   12.5880   20.8180 C.2   157  THR157      0.2287
     77  O          6.2470   11.7720   21.2090 O.2   157  THR157     -0.2866
     78  CB         4.4920   14.0200   22.6210 C.3   157  THR157      0.1770
     79  OG1        3.1840   14.3170   22.1440 O.3   157  THR157     -0.2211
     80  CG2        4.8470   15.1430   23.5060 C.3   157  THR157      0.0375
@<TRIPOS>BOND
     1    39    40    1
     2    40    43    1
     3    40    41    1
     4    43    44    1
     5    43    45    1
     6    41    42    2
     7    33    32    2
     8    60    58    1
     9    29    26    1
    10    32    31    1
    11    58    59    1
    12    58    57    1
    13    53    54    1
    14    54    57    1
    15    54    55    1
    16    66    67    1
    17    46    47    1
    18    30    31    1
    19    30    27   am
    20    26    27    1
    21    26    25    1
    22    67    68    1
    23    67    70    1
    24    31    34    1
    25    23    22   ar
    26    20    19    2
    27    24    22   ar
    28    47    48    1
    29    47    50    1
    30    27    28    2
    31    56    55    2
    32    55    61   am
    33    68    69    2
    34    22    21    1
    35    48    49    2
    36    71    70    1
    37    71    73    1
    38    25    19   am
    39    19    18    1
    40    34    35    1
    41    70    72    1
    42    51    50    1
    43    61    62    1
    44    50    52    1
    45    21    18    1
    46    63    64    2
    47    63    62    1
    48    18    17    1
    49    35    36    1
    50    62    65    1
    51    17     9   am
    52    74    75    1
    53     1     2    1
    54    76    77    2
    55    76    75    1
    56    36    37    1
    57    14    12   ar
    58    14    16   ar
    59    11    12    1
    60    11     8    1
    61    75    78    1
    62     9     8    1
    63     9    10    2
    64     7     8    1
    65     7     3   am
    66    37    38    1
    67    12    13   ar
    68    16    15   ar
    69    79    78    1
    70     2     3    1
    71     2     5    1
    72    78    80    1
    73     3     4    2
    74     5     6    1
    75    13    15   ar
