@<TRIPOS>MOLECULE
tmp/2j0rA05.pdb
 154 149 0 0 0
SMALL
GASTEIGER

@<TRIPOS>ATOM
      1  N         -2.1790  -37.8820   13.4590 N.3    18  TYR18      -0.1241
      2  CA        -2.5280  -36.6020   12.8290 C.3    18  TYR18       0.1605
      3  C         -2.0200  -35.4480   13.7750 C.2    18  TYR18       0.2264
      4  O         -2.0710  -35.5660   14.9660 O.2    18  TYR18      -0.2867
      5  CB        -4.0600  -36.4800   12.7010 C.3    18  TYR18       0.0534
      6  CG        -4.7950  -37.1560   11.5490 C.ar   18  TYR18      -0.0201
      7  CD1       -4.5290  -36.8440   10.2300 C.ar   18  TYR18      -0.0009
      8  CD2       -5.8220  -38.0480   11.7880 C.ar   18  TYR18      -0.0009
      9  CE1       -5.2380  -37.4150    9.2120 C.ar   18  TYR18       0.0417
     10  CE2       -6.5060  -38.6310   10.7600 C.ar   18  TYR18       0.0417
     11  CZ        -6.2020  -38.3230    9.4780 C.ar   18  TYR18       0.1957
     12  OH        -6.8850  -38.8900    8.4510 O.3    18  TYR18      -0.2866
     13  N         -7.1190  -29.8870   -3.2040 N.3    63  LYS63      -0.1245
     14  CA        -7.8210  -30.8380   -2.3480 C.3    63  LYS63       0.1561
     15  C         -8.2940  -30.1250   -1.0880 C.2    63  LYS63       0.2260
     16  O         -7.4800  -29.5180   -0.3640 O.2    63  LYS63      -0.2867
     17  CB        -6.9260  -32.0270   -1.9760 C.3    63  LYS63       0.0271
     18  CG        -7.6610  -33.0860   -1.1110 C.3    63  LYS63       0.0035
     19  CD        -6.6920  -34.1310   -0.5520 C.3    63  LYS63       0.0206
     20  CE        -6.1220  -34.9990   -1.6740 C.3    63  LYS63       0.1093
     21  NZ        -5.3350  -36.1690   -1.1630 N.3    63  LYS63      -0.1314
     22  N        -10.2030  -30.3750    2.6330 N.3    65  ILE65      -0.1245
     23  CA       -10.4430  -31.3020    3.7450 C.3    65  ILE65       0.1561
     24  C        -11.2150  -30.6160    4.8620 C.2    65  ILE65       0.2260
     25  O        -10.7870  -29.5760    5.3820 O.2    65  ILE65      -0.2867
     26  CB        -9.1480  -31.9580    4.3040 C.3    65  ILE65       0.0252
     27  CG1       -8.3720  -32.6750    3.1780 C.3    65  ILE65       0.0019
     28  CG2       -9.4680  -32.9090    5.4970 C.3    65  ILE65       0.0019
     29  CD1       -7.0210  -33.2340    3.5980 C.3    65  ILE65       0.0001
     30  N        -12.4830  -35.5740    2.2940 N.3    74  GLU74      -0.1231
     31  CA       -11.4240  -35.0150    1.4250 C.3    74  GLU74       0.1699
     32  C        -11.9410  -34.9730    0.0100 C.2    74  GLU74       0.2592
     33  O        -12.3330  -35.9980   -0.5290 O.2    74  GLU74      -0.2718
     34  CB       -10.1530  -35.8870    1.4520 C.3    74  GLU74       0.0402
     35  CG        -9.6730  -36.1950    2.8400 C.3    74  GLU74       0.1161
     36  CD        -8.3210  -36.9140    2.8830 C.2    74  GLU74       0.3649
     37  OE1       -7.9090  -37.2630    4.0040 O.co2  74  GLU74      -0.2457
     38  OE2       -7.6830  -37.1370    1.8280 O.co2  74  GLU74      -0.2457
     39  N        -11.9360  -33.8000   -0.5970 N.am   75  GLN75      -0.1966
     40  CA       -12.5120  -33.6670   -1.9320 C.3    75  GLN75       0.1733
     41  C        -11.7170  -32.7710   -2.8810 C.2    75  GLN75       0.2616
     42  O        -11.3210  -31.6620   -2.5260 O.2    75  GLN75      -0.2715
     43  CB       -13.9470  -33.1420   -1.7980 C.3    75  GLN75       0.0408
     44  CG       -14.5810  -32.8000   -3.1200 C.3    75  GLN75       0.0908
     45  CD       -15.6450  -33.7750   -3.4820 C.2    75  GLN75       0.2608
     46  OE1      -15.5170  -34.4940   -4.4550 O.2    75  GLN75      -0.2717
     47  NE2      -16.7180  -33.8050   -2.6910 N.am   75  GLN75      -0.0878
     48  N        -11.5120  -33.2610   -4.1020 N.am   76  MET76      -0.1977
     49  CA       -10.8580  -32.4770   -5.1620 C.3    76  MET76       0.1605
     50  C        -11.8150  -31.4540   -5.7540 C.2    76  MET76       0.2287
     51  O        -12.9680  -31.7650   -5.9930 O.2    76  MET76      -0.2864
     52  CB       -10.4120  -33.4030   -6.3000 C.3    76  MET76       0.0413
     53  CG        -9.3930  -34.4350   -5.9030 C.3    76  MET76       0.0598
     54  SD        -7.9310  -33.6410   -5.2630 S.3    76  MET76      -0.1393
     55  CE        -7.2800  -32.8810   -6.7640 C.3    76  MET76       0.0692
     56  N          7.1280  -34.7290    3.6900 N.3   116  THR116     -0.1218
     57  CA         6.2170  -35.7530    4.1870 C.3   116  THR116      0.1862
     58  C          6.2570  -37.0000    3.3090 C.2   116  THR116      0.2287
     59  O          5.2590  -37.3650    2.6870 O.2   116  THR116     -0.2866
     60  CB         4.7690  -35.2340    4.2590 C.3   116  THR116      0.1770
     61  OG1        4.7520  -33.9410    4.8770 O.3   116  THR116     -0.2211
     62  CG2        3.9000  -36.1880    5.0640 C.3   116  THR116      0.0375
     63  N          4.2810  -31.5420    0.9960 N.3   121  ARG121     -0.1245
     64  CA         2.8850  -31.0990    1.0310 C.3   121  ARG121      0.1563
     65  C          2.8280  -29.6030    1.3210 C.2   121  ARG121      0.2260
     66  O          3.5100  -29.1200    2.2180 O.2   121  ARG121     -0.2867
     67  CB         2.1000  -31.8210    2.1290 C.3   121  ARG121      0.0307
     68  CG         1.9310  -33.3140    1.9500 C.3   121  ARG121      0.0489
     69  CD         0.8200  -33.6400    0.9570 C.3   121  ARG121      0.2205
     70  NE         0.5970  -35.0820    0.8520 N.pl3 121  ARG121     -0.0865
     71  CZ         1.2150  -35.8830   -0.0120 C.cat 121  ARG121      0.5346
     72  NH1        2.1100  -35.3940   -0.8630 N.pl3 121  ARG121      0.1354
     73  NH2        0.9310  -37.1800   -0.0290 N.pl3 121  ARG121      0.1354
     74  N         -5.0600  -28.2890    0.3080 N.3   138  TYR138     -0.1227
     75  CA        -3.7930  -28.8760   -0.1250 C.3   138  TYR138      0.1736
     76  C         -3.5350  -28.7270   -1.6430 C.2   138  TYR138      0.2595
     77  O         -4.3920  -28.9500   -2.4540 O.2   138  TYR138     -0.2718
     78  CB        -3.6980  -30.3680    0.2370 C.3   138  TYR138      0.0548
     79  CG        -3.4490  -30.6290    1.7280 C.ar  138  TYR138     -0.0200
     80  CD1       -2.1920  -30.8620    2.2230 C.ar  138  TYR138     -0.0009
     81  CD2       -4.4790  -30.6000    2.6270 C.ar  138  TYR138     -0.0009
     82  CE1       -1.9810  -31.0340    3.5530 C.ar  138  TYR138      0.0417
     83  CE2       -4.2840  -30.7810    3.9330 C.ar  138  TYR138      0.0417
     84  CZ        -3.0280  -30.9880    4.4170 C.ar  138  TYR138      0.1957
     85  OH        -2.8490  -31.1900    5.7390 O.3   138  TYR138     -0.2866
     86  N         -2.3160  -28.3890   -1.9590 N.am  139  VAL139     -0.1966
     87  CA        -1.8640  -28.3460   -3.3220 C.3   139  VAL139      0.1727
     88  C         -1.8970  -29.7690   -3.9060 C.2   139  VAL139      0.2617
     89  O         -1.6080  -30.6920   -3.2100 O.2   139  VAL139     -0.2715
     90  CB        -0.4470  -27.7520   -3.3590 C.3   139  VAL139      0.0290
     91  CG1        0.2460  -28.1440   -4.5700 C.3   139  VAL139      0.0023
     92  CG2       -0.4750  -26.2590   -3.1160 C.3   139  VAL139      0.0023
     93  N         -2.2930  -29.9080   -5.1740 N.am  140  THR140     -0.1937
     94  CA        -2.2510  -31.1850   -5.8630 C.3   140  THR140      0.2028
     95  C         -1.5590  -31.0010   -7.2060 C.2   140  THR140      0.2642
     96  O         -1.0830  -29.9070   -7.5300 O.2   140  THR140     -0.2714
     97  CB        -3.6790  -31.7780   -6.0810 C.3   140  THR140      0.1808
     98  OG1       -4.4710  -30.8740   -6.8580 O.3   140  THR140     -0.2208
     99  CG2       -4.3660  -32.0400   -4.7660 C.3   140  THR140      0.0379
    100  N         -1.5090  -32.0710   -7.9910 N.am  141  GLU141     -0.1976
    101  CA        -0.8320  -31.9940   -9.2640 C.3   141  GLU141      0.1602
    102  C         -1.4170  -30.9720  -10.2300 C.2   141  GLU141      0.2287
    103  O         -0.6670  -30.3860  -11.0010 O.2   141  GLU141     -0.2864
    104  CB        -0.7340  -33.3530   -9.9150 C.3   141  GLU141      0.0415
    105  CG         0.6950  -33.8370   -9.9330 C.3   141  GLU141      0.1163
    106  CD         1.1750  -34.0480  -11.3250 C.2   141  GLU141      0.3649
    107  OE1        0.4040  -33.7310  -12.2560 O.co2 141  GLU141     -0.2457
    108  OE2        2.3240  -34.5290  -11.4960 O.co2 141  GLU141     -0.2457
    109  N        -12.1580  -42.8860   -3.5300 N.3   264  ASN264     -0.1225
    110  CA       -12.4290  -42.4900   -4.9110 C.3   264  ASN264      0.1785
    111  C        -11.2360  -41.7250   -5.4820 C.2   264  ASN264      0.2597
    112  O        -10.3590  -41.2900   -4.7140 O.2   264  ASN264     -0.2718
    113  CB       -13.6560  -41.5790   -4.9760 C.3   264  ASN264      0.1169
    114  CG       -14.9580  -42.3130   -4.7410 C.2   264  ASN264      0.2627
    115  OD1      -14.9950  -43.5010   -4.3580 O.2   264  ASN264     -0.2716
    116  ND2      -16.0590  -41.6020   -4.9810 N.am  264  ASN264     -0.0877
    117  N        -11.1850  -41.5850   -6.8090 N.am  265  GLN265     -0.1965
    118  CA       -10.1380  -40.8030   -7.4640 C.3   265  GLN265      0.1733
    119  C        -10.1540  -39.3530   -6.9550 C.2   265  GLN265      0.2616
    120  O         -9.1110  -38.7320   -6.7860 O.2   265  GLN265     -0.2715
    121  CB       -10.3120  -40.8390   -8.9990 C.3   265  GLN265      0.0408
    122  CG       -10.4070  -42.2470   -9.6220 C.3   265  GLN265      0.0908
    123  CD        -9.0590  -42.9180   -9.8500 C.2   265  GLN265      0.2608
    124  OE1       -8.0850  -42.6550   -9.1420 O.2   265  GLN265     -0.2717
    125  NE2       -9.0010  -43.8040  -10.8480 N.am  265  GLN265     -0.0878
    126  N        -11.3520  -38.8250   -6.7110 N.am  266  ARG266     -0.1963
    127  CA       -11.4870  -37.4010   -6.3260 C.3   266  ARG266      0.1729
    128  C        -12.1090  -37.1240   -4.9500 C.2   266  ARG266      0.2616
    129  O        -12.3760  -35.9640   -4.6060 O.2   266  ARG266     -0.2715
    130  CB       -12.2780  -36.6590   -7.3910 C.3   266  ARG266      0.0348
    131  CG       -11.5720  -36.5850   -8.7550 C.3   266  ARG266      0.0492
    132  CD       -12.4630  -35.9170   -9.7890 C.3   266  ARG266      0.2205
    133  NE       -12.8230  -34.5290   -9.4510 N.pl3 266  ARG266     -0.0865
    134  CZ       -12.0390  -33.4770   -9.6710 C.cat 266  ARG266      0.5346
    135  NH1      -10.8290  -33.6380  -10.1990 N.pl3 266  ARG266      0.1354
    136  NH2      -12.4550  -32.2570   -9.3610 N.pl3 266  ARG266      0.1354
    137  N        -12.3550  -38.1530   -4.1660 N.am  267  PHE267     -0.1960
    138  CA       -13.0010  -38.0520   -2.8580 C.3   267  PHE267      0.1771
    139  C        -12.4990  -39.2040   -1.9570 C.2   267  PHE267      0.2620
    140  O        -12.3800  -40.3070   -2.4020 O.2   267  PHE267     -0.2715
    141  CB       -14.5440  -38.1130   -3.0040 C.3   267  PHE267      0.0574
    142  CG       -15.3100  -38.3690   -1.7140 C.ar  267  PHE267     -0.0200
    143  CD1      -15.9800  -39.5680   -1.5100 C.ar  267  PHE267     -0.0042
    144  CD2      -15.3790  -37.3960   -0.6960 C.ar  267  PHE267     -0.0042
    145  CE1      -16.6760  -39.7980   -0.3450 C.ar  267  PHE267     -0.0003
    146  CE2      -16.0810  -37.6370    0.4340 C.ar  267  PHE267     -0.0003
    147  CZ       -16.6980  -38.8550    0.6100 C.ar  267  PHE267     -0.0000
    148  N        -12.2250  -38.8670   -0.7080 N.am  268  THR268     -0.1951
    149  CA       -11.8600  -39.8300    0.3240 C.3   268  THR268      0.1897
    150  C        -12.6920  -39.5440    1.5850 C.2   268  THR268      0.2313
    151  O        -12.8330  -38.4570    1.9490 O.2   268  THR268     -0.2863
    152  CB       -10.3540  -39.8150    0.6780 C.3   268  THR268      0.1794
    153  OG1       -9.5500  -39.9300   -0.4790 O.3   268  THR268     -0.2208
    154  CG2      -10.0180  -40.8710    1.6540 C.3   268  THR268      0.0378
@<TRIPOS>BOND
     1   107   106   ar
     2   108   106   ar
     3   106   105    1
     4   103   102    2
     5   125   123   am
     6   102   101    1
     7   135   134    1
     8   105   104    1
     9   104   101    1
    10   123   122    1
    11   123   124    2
    12   132   133    1
    13   132   131    1
    14   134   133    2
    15   134   136    1
    16   122   121    1
    17   101   100    1
    18   121   118    1
    19   131   130    1
    20   100    95   am
    21    96    95    2
    22   118   119    1
    23   118   117    1
    24   130   127    1
    25    95    94    1
    26   119   120    2
    27   119   126   am
    28    98    97    1
    29   117   111   am
    30    55    54    1
    31   126   127    1
    32   127   128    1
    33    52    53    1
    34    52    49    1
    35    97    94    1
    36    97    99    1
    37    51    50    2
    38    53    54    1
    39    94    93    1
    40    50    49    1
    41   111   110    1
    42   111   112    2
    43    93    88   am
    44    49    48    1
    45   116   114   am
    46   113   110    1
    47   113   114    1
    48   128   129    2
    49   128   137   am
    50   110   109    1
    51   114   115    2
    52    91    90    1
    53    46    45    2
    54   137   138    1
    55    48    41   am
    56    88    87    1
    57    88    89    2
    58    45    44    1
    59    45    47   am
    60    90    87    1
    61    90    92    1
    62    87    86    1
    63    13    14    1
    64    44    43    1
    65   141   138    1
    66   141   142    1
    67    41    42    2
    68    41    40    1
    69   138   139    1
    70    77    76    2
    71   140   139    2
    72    14    17    1
    73    14    15    1
    74    17    18    1
    75    86    76   am
    76   139   148   am
    77    40    43    1
    78    40    39    1
    79   142   143   ar
    80   142   144   ar
    81    20    21    1
    82    20    19    1
    83    76    75    1
    84   143   145   ar
    85    18    19    1
    86    15    16    2
    87    72    71    1
    88   148   149    1
    89   144   146   ar
    90    39    32   am
    91    33    32    2
    92   153   152    1
    93   145   147   ar
    94    75    78    1
    95    75    74    1
    96    73    71    1
    97    71    70    2
    98    32    31    1
    99    78    79    1
   100   149   152    1
   101   149   150    1
   102   146   147   ar
   103   152   154    1
   104    70    69    1
   105    69    68    1
   106    63    64    1
   107    64    65    1
   108    64    67    1
   109    65    66    2
   110    31    34    1
   111    31    30    1
   112    34    35    1
   113   150   151    2
   114    79    80   ar
   115    79    81   ar
   116    38    36   ar
   117    68    67    1
   118    80    82   ar
   119    81    83   ar
   120    22    23    1
   121    59    58    2
   122    35    36    1
   123    36    37   ar
   124    27    29    1
   125    27    26    1
   126    58    57    1
   127    82    84   ar
   128    56    57    1
   129    23    26    1
   130    23    24    1
   131    83    84   ar
   132    57    60    1
   133    60    61    1
   134    60    62    1
   135    26    28    1
   136    84    85    1
   137    24    25    2
   138    12    11    1
   139     9    11   ar
   140     9     7   ar
   141    11    10   ar
   142     7     6   ar
   143    10     8   ar
   144     6     8   ar
   145     6     5    1
   146     5     2    1
   147     2     1    1
   148     2     3    1
   149     3     4    2
