@<TRIPOS>MOLECULE
tmp/2j0rA04.pdb
 123 117 0 0 0
SMALL
GASTEIGER

@<TRIPOS>ATOM
      1  N        -20.6650  -25.3300    2.8110 N.3   100  ARG100     -0.1245
      2  CA       -21.5160  -24.4200    3.5490 C.3   100  ARG100      0.1563
      3  C        -20.6870  -23.9130    4.7420 C.2   100  ARG100      0.2260
      4  O        -20.2350  -24.6700    5.5230 O.2   100  ARG100     -0.2867
      5  CB       -22.8270  -25.0800    3.9790 C.3   100  ARG100      0.0307
      6  CG       -23.5490  -25.8120    2.8640 C.3   100  ARG100      0.0489
      7  CD       -24.1700  -24.9210    1.7950 C.3   100  ARG100      0.2205
      8  NE       -24.7980  -25.7340    0.7690 N.pl3 100  ARG100     -0.0865
      9  CZ       -24.2050  -26.1510   -0.3250 C.cat 100  ARG100      0.5346
     10  NH1      -24.8530  -26.9170   -1.1430 N.pl3 100  ARG100      0.1354
     11  NH2      -22.9790  -25.7970   -0.6090 N.pl3 100  ARG100      0.1354
     12  N        -36.5960  -29.2110    2.8240 N.3   185  VAL185     -0.1231
     13  CA       -35.7410  -29.9090    3.7960 C.3   185  VAL185      0.1692
     14  C        -35.0690  -28.9260    4.7790 C.2   185  VAL185      0.2592
     15  O        -34.8180  -29.2670    5.9360 O.2   185  VAL185     -0.2718
     16  CB       -34.7110  -30.8450    3.0890 C.3   185  VAL185      0.0266
     17  CG1      -33.5440  -31.1620    3.9880 C.3   185  VAL185      0.0020
     18  CG2      -35.3850  -32.1450    2.6520 C.3   185  VAL185      0.0020
     19  N        -34.8370  -27.6980    4.3180 N.am  186  HIS186     -0.1976
     20  CA       -34.2060  -26.6490    5.1260 C.3   186  HIS186      0.1656
     21  C        -35.0550  -26.1360    6.2930 C.2   186  HIS186      0.2291
     22  O        -34.5140  -25.5380    7.2300 O.2   186  HIS186     -0.2864
     23  CB       -33.7900  -25.4720    4.2400 C.3   186  HIS186      0.0771
     24  CG       -32.5380  -25.7150    3.4570 C.ar  186  HIS186      0.0820
     25  ND1      -32.5370  -26.3250    2.2200 N.ar  186  HIS186     -0.2267
     26  CD2      -31.2440  -25.4210    3.7330 C.ar  186  HIS186      0.1154
     27  CE1      -31.2980  -26.3960    1.7680 C.ar  186  HIS186      0.1986
     28  NE2      -30.4940  -25.8520    2.6650 N.ar  186  HIS186     -0.2212
     29  N        -34.2360  -27.2540   10.0450 N.3   189  PHE189     -0.1241
     30  CA       -33.3970  -26.3870   10.8730 C.3   189  PHE189      0.1605
     31  C        -34.2540  -25.4840   11.7660 C.2   189  PHE189      0.2264
     32  O        -33.9980  -25.3590   12.9740 O.2   189  PHE189     -0.2867
     33  CB       -32.4830  -25.5160   10.0040 C.3   189  PHE189      0.0534
     34  CG       -31.4380  -26.2820    9.2320 C.ar  189  PHE189     -0.0203
     35  CD1      -30.6870  -27.2910    9.8380 C.ar  189  PHE189     -0.0042
     36  CD2      -31.1670  -25.9540    7.9020 C.ar  189  PHE189     -0.0042
     37  CE1      -29.7020  -27.9820    9.1180 C.ar  189  PHE189     -0.0003
     38  CE2      -30.1890  -26.6350    7.1780 C.ar  189  PHE189     -0.0003
     39  CZ       -29.4560  -27.6520    7.7870 C.ar  189  PHE189     -0.0000
     40  N        -25.0750  -38.7100   -1.7030 N.3   234  MET234     -0.1245
     41  CA       -24.5430  -37.5120   -1.0920 C.3   234  MET234      0.1570
     42  C        -24.0520  -37.8510    0.3130 C.2   234  MET234      0.2261
     43  O        -24.7380  -38.5760    1.0500 O.2   234  MET234     -0.2867
     44  CB       -25.6390  -36.4390   -1.0220 C.3   234  MET234      0.0387
     45  CG       -26.1520  -36.0150   -2.4020 C.3   234  MET234      0.0595
     46  SD       -27.3120  -34.6490   -2.2850 S.3   234  MET234     -0.1393
     47  CE       -26.2100  -33.2980   -1.8840 C.3   234  MET234      0.0692
     48  N        -22.4280  -35.7890    3.6250 N.3   236  PHE236     -0.1241
     49  CA       -22.2240  -34.5340    4.3220 C.3   236  PHE236      0.1605
     50  C        -21.3540  -34.8120    5.5560 C.2   236  PHE236      0.2264
     51  O        -21.6310  -35.7010    6.3000 O.2   236  PHE236     -0.2867
     52  CB       -23.5290  -33.9550    4.8610 C.3   236  PHE236      0.0534
     53  CG       -24.4360  -33.3540    3.8370 C.ar  236  PHE236     -0.0203
     54  CD1      -24.9260  -32.1000    4.0050 C.ar  236  PHE236     -0.0042
     55  CD2      -24.8590  -34.0590    2.7550 C.ar  236  PHE236     -0.0042
     56  CE1      -25.7840  -31.5590    3.0990 C.ar  236  PHE236     -0.0003
     57  CE2      -25.7150  -33.5140    1.8410 C.ar  236  PHE236     -0.0003
     58  CZ       -26.1650  -32.2880    1.9930 C.ar  236  PHE236     -0.0000
     59  N        -19.3810  -27.1790    6.5320 N.3   243  VAL243     -0.1245
     60  CA       -19.9800  -28.4120    6.0780 C.3   243  VAL243      0.1561
     61  C        -19.5810  -28.6380    4.6010 C.2   243  VAL243      0.2260
     62  O        -19.8010  -27.8130    3.7610 O.2   243  VAL243     -0.2867
     63  CB       -21.5470  -28.4140    6.1820 C.3   243  VAL243      0.0252
     64  CG1      -22.1280  -29.6260    5.6130 C.3   243  VAL243      0.0019
     65  CG2      -22.0400  -28.1290    7.5660 C.3   243  VAL243      0.0019
     66  N        -19.7620  -31.2450    1.2900 N.3   245  ILE245     -0.1245
     67  CA       -20.7330  -32.1250    0.6930 C.3   245  ILE245      0.1561
     68  C        -20.2040  -32.8200   -0.5410 C.2   245  ILE245      0.2260
     69  O        -19.8110  -32.1940   -1.4050 O.2   245  ILE245     -0.2867
     70  CB       -22.0060  -31.3420    0.2780 C.3   245  ILE245      0.0252
     71  CG1      -22.5150  -30.4780    1.4280 C.3   245  ILE245      0.0019
     72  CG2      -23.0020  -32.2330   -0.3580 C.3   245  ILE245      0.0019
     73  CD1      -23.5500  -29.5670    1.1310 C.3   245  ILE245      0.0001
     74  N        -37.8500  -36.9400    1.3160 N.3   291  VAL291     -0.1245
     75  CA       -36.4270  -37.0850    1.2000 C.3   291  VAL291      0.1561
     76  C        -35.9400  -37.9030    2.3370 C.2   291  VAL291      0.2260
     77  O        -36.1380  -37.5680    3.4400 O.2   291  VAL291     -0.2867
     78  CB       -35.7460  -35.7440    1.2570 C.3   291  VAL291      0.0252
     79  CG1      -34.2230  -35.8890    1.4000 C.3   291  VAL291      0.0019
     80  CG2      -36.0570  -34.9790    0.0800 C.3   291  VAL291      0.0019
     81  N        -27.5900  -38.9730    1.8540 N.3   308  TYR308     -0.1227
     82  CA       -28.7690  -38.7630    1.1050 C.3   308  TYR308      0.1736
     83  C        -28.5600  -39.3070   -0.3000 C.2   308  TYR308      0.2596
     84  O        -27.4630  -39.5510   -0.6710 O.2   308  TYR308     -0.2718
     85  CB       -29.0760  -37.2940    0.9770 C.3   308  TYR308      0.0548
     86  CG       -29.1340  -36.5110    2.2260 C.ar  308  TYR308     -0.0200
     87  CD1      -30.3320  -36.1520    2.7810 C.ar  308  TYR308     -0.0009
     88  CD2      -27.9960  -36.0570    2.8250 C.ar  308  TYR308     -0.0009
     89  CE1      -30.3760  -35.4270    3.8950 C.ar  308  TYR308      0.0417
     90  CE2      -28.0410  -35.3300    3.9210 C.ar  308  TYR308      0.0417
     91  CZ       -29.2310  -35.0150    4.4710 C.ar  308  TYR308      0.1957
     92  OH       -29.2850  -34.2660    5.5760 O.3   308  TYR308     -0.2866
     93  N        -29.6460  -39.4890   -1.0360 N.am  309  GLY309     -0.1957
     94  CA       -29.5600  -39.8320   -2.4270 C.3   309  GLY309      0.1869
     95  C        -29.3300  -38.5640   -3.2180 C.2   309  GLY309      0.2309
     96  O        -29.7540  -37.5340   -2.7810 O.2   309  GLY309     -0.2863
     97  N        -30.0440  -35.6000   -5.5540 N.3   311  ARG311     -0.1231
     98  CA       -31.2510  -34.9200   -5.8820 C.3   311  ARG311      0.1694
     99  C        -31.0380  -33.4600   -6.1860 C.2   311  ARG311      0.2593
    100  O        -30.3380  -32.8050   -5.4890 O.2   311  ARG311     -0.2718
    101  CB       -32.2410  -35.0350   -4.7170 C.3   311  ARG311      0.0321
    102  CG       -33.5860  -34.6130   -5.0740 C.3   311  ARG311      0.0489
    103  CD       -34.6160  -34.8010   -4.0430 C.3   311  ARG311      0.2205
    104  NE       -34.6460  -33.7280   -3.1140 N.pl3 311  ARG311     -0.0865
    105  CZ       -35.2670  -32.5990   -3.2880 C.cat 311  ARG311      0.5346
    106  NH1      -35.1790  -31.6930   -2.3610 N.pl3 311  ARG311      0.1354
    107  NH2      -35.9490  -32.3550   -4.3750 N.pl3 311  ARG311      0.1354
    108  N        -31.6970  -32.9480   -7.2000 N.am  312  THR312     -0.1939
    109  CA       -31.7090  -31.5270   -7.4600 C.3   312  THR312      0.2028
    110  C        -33.1400  -30.9600   -7.3670 C.2   312  THR312      0.2642
    111  O        -34.0880  -31.6830   -7.3990 O.2   312  THR312     -0.2714
    112  CB       -31.0620  -31.1340   -8.8000 C.3   312  THR312      0.1808
    113  OG1      -31.7810  -31.7070   -9.8730 O.3   312  THR312     -0.2208
    114  CG2      -29.6880  -31.5950   -8.8750 C.3   312  THR312      0.0379
    115  N        -33.2620  -29.6520   -7.2890 N.am  313  GLU313     -0.1976
    116  CA       -34.5740  -29.0490   -7.0580 C.3   313  GLU313      0.1602
    117  C        -35.5460  -29.3720   -8.1830 C.2   313  GLU313      0.2287
    118  O        -35.1880  -29.3120   -9.3600 O.2   313  GLU313     -0.2864
    119  CB       -34.4590  -27.5360   -6.8530 C.3   313  GLU313      0.0415
    120  CG       -35.5080  -26.9620   -5.8830 C.3   313  GLU313      0.1163
    121  CD       -35.5220  -27.6680   -4.5210 C.2   313  GLU313      0.3649
    122  OE1      -34.6300  -28.5050   -4.2400 O.co2 313  GLU313     -0.2457
    123  OE2      -36.4360  -27.3870   -3.7250 O.co2 313  GLU313     -0.2457
@<TRIPOS>BOND
     1   113   112    1
     2   118   117    2
     3   114   112    1
     4   112   109    1
     5   117   116    1
     6   109   110    1
     7   109   108    1
     8   111   110    2
     9   110   115   am
    10   115   116    1
    11   108    99   am
    12   116   119    1
    13   119   120    1
    14    99    98    1
    15    99   100    2
    16   120   121    1
    17    98    97    1
    18    98   101    1
    19   102   101    1
    20   102   103    1
    21   121   122   ar
    22   121   123   ar
    23   107   105    1
    24   103   104    1
    25   105   104    2
    26   105   106    1
    27    95    96    2
    28    95    94    1
    29    94    93    1
    30    45    46    1
    31    45    44    1
    32    46    47    1
    33    40    41    1
    34    69    68    2
    35    10     9    1
    36    41    44    1
    37    41    42    1
    38    93    83   am
    39    84    83    2
    40    11     9    1
    41    68    67    1
    42    72    70    1
    43     9     8    2
    44    83    82    1
    45    80    78    1
    46    70    67    1
    47    70    71    1
    48    42    43    2
    49    67    66    1
    50     8     7    1
    51    85    82    1
    52    85    86    1
    53    82    81    1
    54    73    71    1
    55    75    78    1
    56    75    74    1
    57    75    76    1
    58    78    79    1
    59    27    25   ar
    60    27    28   ar
    61     7     6    1
    62    57    58   ar
    63    57    55   ar
    64    58    56   ar
    65    25    24   ar
    66    86    87   ar
    67    86    88   ar
    68    76    77    2
    69    18    16    1
    70    28    26   ar
    71    55    53   ar
    72    87    89   ar
    73     1     2    1
    74    12    13    1
    75    88    90   ar
    76     6     5    1
    77    16    13    1
    78    16    17    1
    79    56    54   ar
    80    24    26   ar
    81    24    23    1
    82     2     5    1
    83     2     3    1
    84    48    49    1
    85    62    61    2
    86    13    14    1
    87    53    54   ar
    88    53    52    1
    89    89    91   ar
    90    90    91   ar
    91    23    20    1
    92    19    14   am
    93    19    20    1
    94    49    52    1
    95    49    50    1
    96    91    92    1
    97    61    60    1
    98     3     4    2
    99    14    15    2
   100    20    21    1
   101    50    51    2
   102    64    63    1
   103    60    63    1
   104    60    59    1
   105    63    65    1
   106    21    22    2
   107    38    39   ar
   108    38    36   ar
   109    39    37   ar
   110    36    34   ar
   111    37    35   ar
   112    34    35   ar
   113    34    33    1
   114    33    30    1
   115    29    30    1
   116    30    31    1
   117    31    32    2
