@<TRIPOS>MOLECULE
tmp/2j0rA00.pdb
 86 83 0 0 0
SMALL
GASTEIGER

@<TRIPOS>ATOM
      1  N        -22.9580  -15.2770    8.5330 N.3    87  HIS87      -0.1226
      2  CA       -23.7270  -16.3290    9.2030 C.3    87  HIS87       0.1752
      3  C        -23.9130  -17.5650    8.3290 C.2    87  HIS87       0.2595
      4  O        -23.9920  -18.6830    8.8460 O.2    87  HIS87      -0.2718
      5  CB       -25.0880  -15.7910    9.6360 C.3    87  HIS87       0.0759
      6  CG       -25.0140  -14.4570   10.3130 C.ar   87  HIS87       0.0818
      7  ND1      -24.6810  -14.3160   11.6450 N.ar   87  HIS87      -0.2268
      8  CD2      -25.2200  -13.2050    9.8390 C.ar   87  HIS87       0.1154
      9  CE1      -24.6930  -13.0330   11.9620 C.ar   87  HIS87       0.1986
     10  NE2      -25.0250  -12.3390   10.8850 N.ar   87  HIS87      -0.2212
     11  N        -24.0040  -17.3640    7.0120 N.am   88  ALA88      -0.1980
     12  CA       -24.1600  -18.4670    6.0640 C.3    88  ALA88       0.1597
     13  C        -23.6290  -18.0460    4.7030 C.2    88  ALA88       0.2287
     14  O        -24.0370  -17.0160    4.1570 O.2    88  ALA88      -0.2864
     15  CB       -25.6240  -18.9140    5.9590 C.3    88  ALA88       0.0319
     16  N        -20.6650  -25.3300    2.8110 N.3   100  ARG100     -0.1231
     17  CA       -21.5160  -24.4200    3.5490 C.3   100  ARG100      0.1694
     18  C        -20.6870  -23.9130    4.7420 C.2   100  ARG100      0.2592
     19  O        -20.2350  -24.6700    5.5230 O.2   100  ARG100     -0.2718
     20  CB       -22.8270  -25.0800    3.9790 C.3   100  ARG100      0.0321
     21  CG       -23.5490  -25.8120    2.8640 C.3   100  ARG100      0.0489
     22  CD       -24.1700  -24.9210    1.7950 C.3   100  ARG100      0.2205
     23  NE       -24.7980  -25.7340    0.7690 N.pl3 100  ARG100     -0.0865
     24  CZ       -24.2050  -26.1510   -0.3250 C.cat 100  ARG100      0.5346
     25  NH1      -24.8530  -26.9170   -1.1430 N.pl3 100  ARG100      0.1354
     26  NH2      -22.9790  -25.7970   -0.6090 N.pl3 100  ARG100      0.1354
     27  N        -20.5270  -22.6160    4.7980 N.am  101  LEU101     -0.1966
     28  CA       -19.6500  -21.9300    5.6960 C.3   101  LEU101      0.1728
     29  C        -20.3420  -20.9930    6.7000 C.2   101  LEU101      0.2616
     30  O        -21.1760  -20.2340    6.3270 O.2   101  LEU101     -0.2715
     31  CB       -18.7220  -21.0710    4.8600 C.3   101  LEU101      0.0311
     32  CG       -18.0850  -21.7760    3.6730 C.3   101  LEU101      0.0022
     33  CD1      -17.5280  -20.8500    2.6830 C.3   101  LEU101      0.0001
     34  CD2      -17.1460  -22.7390    4.1240 C.3   101  LEU101      0.0001
     35  N        -19.9020  -21.0410    7.9480 N.am  102  PHE102     -0.1974
     36  CA       -20.3560  -20.1400    8.9900 C.3   102  PHE102      0.1639
     37  C        -19.1320  -19.3170    9.3700 C.2   102  PHE102      0.2290
     38  O        -18.4820  -19.6130   10.3260 O.2   102  PHE102     -0.2864
     39  CB       -20.9410  -20.9180   10.1580 C.3   102  PHE102      0.0560
     40  CG       -21.4440  -20.0550   11.3070 C.ar  102  PHE102     -0.0200
     41  CD1      -21.5300  -18.6750   11.2050 C.ar  102  PHE102     -0.0042
     42  CD2      -21.8510  -20.6370   12.4930 C.ar  102  PHE102     -0.0042
     43  CE1      -21.9820  -17.9600   12.2300 C.ar  102  PHE102     -0.0003
     44  CE2      -22.3130  -19.8780   13.5030 C.ar  102  PHE102     -0.0003
     45  CZ       -22.3630  -18.5460   13.3640 C.ar  102  PHE102     -0.0000
     46  N        -18.4180  -29.5760   10.8300 N.3   239  ASN239     -0.1225
     47  CA       -17.9400  -29.1010   12.0960 C.3   239  ASN239      0.1785
     48  C        -18.6460  -27.7600   12.3950 C.2   239  ASN239      0.2597
     49  O        -19.4960  -27.3500   11.6720 O.2   239  ASN239     -0.2718
     50  CB       -16.4260  -29.0430   12.1290 C.3   239  ASN239      0.1169
     51  CG       -15.8620  -28.0960   11.1110 C.2   239  ASN239      0.2627
     52  OD1      -16.3510  -27.0540   10.9440 O.2   239  ASN239     -0.2716
     53  ND2      -14.8140  -28.4920   10.4490 N.am  239  ASN239     -0.0877
     54  N        -18.2570  -27.0960   13.4580 N.am  240  ARG240     -0.1979
     55  CA       -18.8950  -25.8660   13.8550 C.3   240  ARG240      0.1597
     56  C        -18.9170  -24.7290   12.8300 C.2   240  ARG240      0.2287
     57  O        -19.7450  -23.8790   12.9070 O.2   240  ARG240     -0.2864
     58  CB       -18.4530  -25.3840   15.2510 C.3   240  ARG240      0.0334
     59  CG       -17.0620  -24.9010   15.3910 C.3   240  ARG240      0.0492
     60  CD       -16.7790  -24.2280   16.7370 C.3   240  ARG240      0.2205
     61  NE       -16.9220  -25.0810   17.9020 N.pl3 240  ARG240     -0.0865
     62  CZ       -15.9750  -25.8250   18.4420 C.cat 240  ARG240      0.5346
     63  NH1      -16.2310  -26.5600   19.4970 N.pl3 240  ARG240      0.1354
     64  NH2      -14.7960  -25.8690   17.9170 N.pl3 240  ARG240      0.1354
     65  N        -17.9960  -25.2460    9.1300 N.3   242  CYS242     -0.1221
     66  CA       -17.9340  -25.7010    7.7570 C.3   242  CYS242      0.1808
     67  C        -18.6460  -27.0530    7.6080 C.2   242  CYS242      0.2601
     68  O        -18.5450  -27.8940    8.4400 O.2   242  CYS242     -0.2717
     69  CB       -16.4600  -25.8400    7.3180 C.3   242  CYS242      0.0970
     70  SG       -16.1260  -26.0430    5.6140 S.3   242  CYS242     -0.0800
     71  N        -19.3810  -27.1790    6.5320 N.am  243  VAL243     -0.1979
     72  CA       -19.9800  -28.4120    6.0780 C.3   243  VAL243      0.1595
     73  C        -19.5810  -28.6380    4.6010 C.2   243  VAL243      0.2287
     74  O        -19.8010  -27.8130    3.7610 O.2   243  VAL243     -0.2864
     75  CB       -21.5470  -28.4140    6.1820 C.3   243  VAL243      0.0276
     76  CG1      -22.1280  -29.6260    5.6130 C.3   243  VAL243      0.0022
     77  CG2      -22.0400  -28.1290    7.5660 C.3   243  VAL243      0.0022
     78  N        -22.8420  -34.8280   15.5150 N.3   303  GLN303     -0.1245
     79  CA       -23.2620  -35.2110   14.1720 C.3   303  GLN303      0.1566
     80  C        -22.0110  -35.6380   13.4330 C.2   303  GLN303      0.2260
     81  O        -21.1380  -34.8150   13.1470 O.2   303  GLN303     -0.2867
     82  CB       -23.9360  -34.0240   13.4660 C.3   303  GLN303      0.0367
     83  CG       -25.2500  -33.6430   14.1180 C.3   303  GLN303      0.0905
     84  CD       -25.7710  -32.2880   13.7050 C.2   303  GLN303      0.2608
     85  OE1      -25.3700  -31.7360   12.6790 O.2   303  GLN303     -0.2717
     86  NE2      -26.6890  -31.7400   14.5090 N.am  303  GLN303     -0.0878
@<TRIPOS>BOND
     1    25    24    1
     2    26    24    1
     3    24    23    2
     4    23    22    1
     5    22    21    1
     6    33    32    1
     7    16    17    1
     8    21    20    1
     9    17    20    1
    10    17    18    1
    11    32    34    1
    12    32    31    1
    13    74    73    2
    14    14    13    2
    15    73    72    1
    16    13    12    1
    17    18    27   am
    18    18    19    2
    19    27    28    1
    20    31    28    1
    21    76    75    1
    22    70    69    1
    23    28    29    1
    24    15    12    1
    25    12    11    1
    26    72    75    1
    27    72    71    1
    28    75    77    1
    29    30    29    2
    30    71    67   am
    31    29    35   am
    32    11     3   am
    33    69    66    1
    34    67    66    1
    35    67    68    2
    36    66    65    1
    37    35    36    1
    38     3     4    2
    39     3     2    1
    40     1     2    1
    41    36    37    1
    42    36    39    1
    43     2     5    1
    44    37    38    2
    45     5     6    1
    46     8     6   ar
    47     8    10   ar
    48    39    40    1
    49     6     7   ar
    50    53    51   am
    51    46    47    1
    52    10     9   ar
    53    52    51    2
    54    51    50    1
    55    41    40   ar
    56    41    43   ar
    57    40    42   ar
    58     7     9   ar
    59    49    48    2
    60    47    50    1
    61    47    48    1
    62    43    45   ar
    63    48    54   am
    64    42    44   ar
    65    85    84    2
    66    56    57    2
    67    56    55    1
    68    81    80    2
    69    45    44   ar
    70    80    79    1
    71    54    55    1
    72    82    83    1
    73    82    79    1
    74    84    83    1
    75    84    86   am
    76    55    58    1
    77    79    78    1
    78    58    59    1
    79    59    60    1
    80    60    61    1
    81    61    62    2
    82    64    62    1
    83    62    63    1
