@<TRIPOS>MOLECULE
tmp/2j0vB01.pdb
 142 138 0 0 0
SMALL
GASTEIGER

@<TRIPOS>ATOM
      1  N         44.3450   17.2240   95.2660 N.3    18  GLY18      -0.1210
      2  CA        43.9190   16.2350   94.2900 C.3    18  GLY18       0.1956
      3  C         42.5810   16.6680   93.6730 C.2    18  GLY18       0.2612
      4  O         41.7290   17.2440   94.3630 O.2    18  GLY18      -0.2717
      5  N         42.4450   16.4170   92.3720 N.am   19  ALA19      -0.1965
      6  CA        41.2240   16.6270   91.5740 C.3    19  ALA19       0.1728
      7  C         40.9510   18.0990   91.2280 C.2    19  ALA19       0.2616
      8  O         39.9230   18.3930   90.6290 O.2    19  ALA19      -0.2715
      9  CB        39.9950   16.0240   92.2880 C.3    19  ALA19       0.0334
     10  N         41.8410   19.0330   91.5830 N.am   20  VAL20      -0.1963
     11  CA        41.5910   20.4350   91.1730 C.3    20  VAL20       0.1727
     12  C         41.8840   20.6010   89.6560 C.2    20  VAL20       0.2617
     13  O         41.3510   21.5000   89.0010 O.2    20  VAL20      -0.2715
     14  CB        42.3920   21.4240   92.0210 C.3    20  VAL20       0.0290
     15  CG1       42.0680   21.2460   93.5420 C.3    20  VAL20       0.0023
     16  CG2       43.8830   21.3140   91.7210 C.3    20  VAL20       0.0023
     17  N         42.6960   19.7170   89.0530 N.am   21  GLY21      -0.1940
     18  CA        42.9660   19.8510   87.5980 C.3    21  GLY21       0.2014
     19  C         44.4220   20.1540   87.1670 C.2    21  GLY21       0.2639
     20  O         44.6550   20.6440   86.0750 O.2    21  GLY21      -0.2714
     21  N         45.3710   19.8050   88.0150 N.am   22  LYS22      -0.1963
     22  CA        46.7900   20.0830   87.7580 C.3    22  LYS22       0.1728
     23  C         47.1920   19.3470   86.5150 C.2    22  LYS22       0.2617
     24  O         47.7720   19.9240   85.6640 O.2    22  LYS22      -0.2715
     25  CB        47.6540   19.6480   88.9590 C.3    22  LYS22       0.0311
     26  CG        47.3070   20.4070   90.2620 C.3    22  LYS22       0.0038
     27  CD        48.1360   19.8810   91.4480 C.3    22  LYS22       0.0206
     28  CE        47.9840   18.3550   91.6560 C.3    22  LYS22       0.1093
     29  NZ        46.6260   18.0650   92.1510 N.3    22  LYS22      -0.1314
     30  N         46.8530   18.0550   86.4070 N.am   23  THR23      -0.1937
     31  CA        47.3600   17.2480   85.2810 C.3    23  THR23       0.2028
     32  C         46.7430   17.7140   83.9420 C.2    23  THR23       0.2642
     33  O         47.4270   17.8050   82.9080 O.2    23  THR23      -0.2714
     34  CB        47.1200   15.7290   85.5440 C.3    23  THR23       0.1808
     35  OG1       47.8390   15.3510   86.7390 O.3    23  THR23      -0.2208
     36  CG2       47.5820   14.8830   84.3400 C.3    23  THR23       0.0379
     37  N         45.4280   17.9470   83.9550 N.am   24  CYS24      -0.1967
     38  CA        44.7440   18.4660   82.7720 C.3    24  CYS24       0.1712
     39  C         45.3690   19.8110   82.3530 C.2    24  CYS24       0.2296
     40  O         45.4800   20.0690   81.1540 O.2    24  CYS24      -0.2864
     41  CB        43.2720   18.6260   83.0680 C.3    24  CYS24       0.0983
     42  SG        42.4630   16.9700   83.0270 S.3    24  CYS24      -0.0798
     43  N         42.3440   18.2660   75.9640 N.3    34  PHE34      -0.1228
     44  CA        41.6740   17.9760   77.2150 C.3    34  PHE34       0.1721
     45  C         41.2780   16.5010   77.1780 C.2    34  PHE34       0.2437
     46  O         40.4260   16.1160   76.3750 O.2    34  PHE34      -0.2733
     47  CB        40.4360   18.8590   77.3650 C.3    34  PHE34       0.0547
     48  CG        39.7570   18.6850   78.6660 C.ar   34  PHE34      -0.0202
     49  CD1       40.3800   19.1370   79.8290 C.ar   34  PHE34      -0.0042
     50  CD2       38.5150   18.0760   78.7390 C.ar   34  PHE34      -0.0042
     51  CE1       39.7830   18.9900   81.0600 C.ar   34  PHE34      -0.0003
     52  CE2       37.8860   17.9320   79.9720 C.ar   34  PHE34      -0.0003
     53  CZ        38.5390   18.3720   81.1400 C.ar   34  PHE34      -0.0000
     54  N         41.8870   15.6660   78.0490 N.am   35  PRO35      -0.2729
     55  CA        41.6970   14.2290   77.9240 C.3    35  PRO35       0.1401
     56  C         40.2960   13.9100   78.3980 C.2    35  PRO35       0.2269
     57  O         39.8950   14.3860   79.4650 O.2    35  PRO35      -0.2865
     58  CB        42.7300   13.6390   78.8920 C.3    35  PRO35       0.0296
     59  CG        43.5650   14.8020   79.3750 C.3    35  PRO35       0.0237
     60  CD        42.7180   16.0160   79.2080 C.3    35  PRO35       0.0939
     61  N         43.0440    9.8090   82.2870 N.3    39  ILE39      -0.1231
     62  CA        43.9600   10.8940   82.7210 C.3    39  ILE39       0.1678
     63  C         44.9850   10.2870   83.6980 C.2    39  ILE39       0.2434
     64  O         44.5900    9.7000   84.7190 O.2    39  ILE39      -0.2733
     65  CB        43.2040   12.0750   83.4020 C.3    39  ILE39       0.0265
     66  CG1       41.9970   12.5460   82.5830 C.3    39  ILE39       0.0019
     67  CG2       44.2050   13.2600   83.7090 C.3    39  ILE39       0.0020
     68  CD1       41.1050   13.5860   83.4290 C.3    39  ILE39       0.0001
     69  N         46.3060   10.4730   83.4440 N.am   40  PRO40      -0.2718
     70  CA        47.2470    9.9050   84.4300 C.3    40  PRO40       0.1535
     71  C         47.1550   10.6540   85.7800 C.2    40  PRO40       0.2599
     72  O         46.6910   11.8030   85.8330 O.2    40  PRO40      -0.2715
     73  CB        48.6310   10.0880   83.7690 C.3    40  PRO40       0.0310
     74  CG        48.4660   11.3070   82.7940 C.3    40  PRO40       0.0237
     75  CD        46.9930   11.1510   82.3200 C.3    40  PRO40       0.0939
     76  N         47.5410    9.9820   86.8510 N.am   41  THR41      -0.1951
     77  CA        47.6960   10.6320   88.1340 C.3    41  THR41       0.1897
     78  C         48.6460   11.8290   87.9480 C.2    41  THR41       0.2313
     79  O         48.3360   12.9410   88.3750 O.2    41  THR41      -0.2863
     80  CB        48.2650    9.6900   89.2190 C.3    41  THR41       0.1794
     81  OG1       47.4190    8.5350   89.3740 O.3    41  THR41      -0.2208
     82  CG2       48.3100   10.4600   90.5430 C.3    41  THR41       0.0378
     83  N         52.6320   16.8300   90.1800 N.3    64  THR64      -0.1218
     84  CA        52.7920   16.2140   91.5170 C.3    64  THR64       0.1862
     85  C         51.5710   15.3620   91.8540 C.2    64  THR64       0.2287
     86  O         50.4550   15.6690   91.3960 O.2    64  THR64      -0.2866
     87  CB        52.9560   17.2800   92.6130 C.3    64  THR64       0.1770
     88  OG1       51.8660   18.2200   92.5750 O.3    64  THR64      -0.2211
     89  CG2       54.2440   18.0810   92.4080 C.3    64  THR64       0.0375
     90  N         41.3030   26.8970   88.9480 N.3   121  THR121     -0.1203
     91  CA        40.9520   26.0100   87.8170 C.3   121  THR121      0.1994
     92  C         39.4540   25.8640   87.6450 C.2   121  THR121      0.2617
     93  O         38.6800   26.2990   88.5070 O.2   121  THR121     -0.2717
     94  CB        41.5000   24.5850   88.0780 C.3   121  THR121      0.1784
     95  OG1       40.9120   24.1240   89.3050 O.3   121  THR121     -0.2211
     96  CG2       43.0310   24.6600   88.2140 C.3   121  THR121      0.0376
     97  N         39.0880   25.2290   86.5240 N.am  122  LYS122     -0.1979
     98  CA        37.7130   24.9350   86.1380 C.3   122  LYS122      0.1596
     99  C         36.8860   26.2220   85.9870 C.2   122  LYS122      0.2287
    100  O         35.7400   26.2570   86.3970 O.2   122  LYS122     -0.2864
    101  CB        37.0710   23.9790   87.1570 C.3   122  LYS122      0.0298
    102  CG        37.9280   22.6910   87.4200 C.3   122  LYS122      0.0038
    103  CD        37.1990   21.7270   88.3790 C.3   122  LYS122      0.0206
    104  CE        38.0530   20.4620   88.5810 C.3   122  LYS122      0.1093
    105  NZ        37.6400   19.5950   89.7330 N.3   122  LYS122     -0.1314
    106  N         35.5100   27.2550   83.4350 N.3   124  ASP124     -0.1225
    107  CA        34.3010   26.9020   82.6170 C.3   124  ASP124      0.1805
    108  C         33.0760   26.5380   83.4410 C.2   124  ASP124      0.2597
    109  O         31.9260   26.7250   82.9570 O.2   124  ASP124     -0.2718
    110  CB        34.6400   25.7900   81.6300 C.3   124  ASP124      0.1424
    111  CG        35.0280   24.5340   82.3250 C.2   124  ASP124      0.3668
    112  OD1       36.1110   24.4560   82.9810 O.co2 124  ASP124     -0.2456
    113  OD2       34.2260   23.5780   82.2540 O.co2 124  ASP124     -0.2456
    114  N         33.2810   26.0540   84.6730 N.am  125  LEU125     -0.1979
    115  CA        32.1670   25.7710   85.5850 C.3   125  LEU125      0.1596
    116  C         31.8410   27.0260   86.4120 C.2   125  LEU125      0.2287
    117  O         30.6640   27.4020   86.6050 O.2   125  LEU125     -0.2864
    118  CB        32.4910   24.5380   86.4600 C.3   125  LEU125      0.0297
    119  CG        32.5970   23.1610   85.7500 C.3   125  LEU125      0.0022
    120  CD1       33.1290   22.0460   86.7050 C.3   125  LEU125      0.0001
    121  CD2       31.2180   22.7660   85.1780 C.3   125  LEU125      0.0001
    122  N         40.7610   27.5310   82.4600 N.3   160  SER160     -0.1202
    123  CA        39.9990   26.2490   82.2270 C.3   160  SER160      0.2020
    124  C         40.7760   25.3620   81.2390 C.2   160  SER160      0.2619
    125  O         41.0490   25.7850   80.1620 O.2   160  SER160     -0.2717
    126  CB        38.6120   26.5800   81.5920 C.3   160  SER160      0.2103
    127  OG        38.0470   25.3670   81.0460 O.3   160  SER160     -0.2182
    128  N         41.1510   24.1370   81.5900 N.am  161  SER161     -0.1937
    129  CA        41.7780   23.2560   80.6160 C.3   161  SER161      0.2055
    130  C         40.7360   22.7470   79.6180 C.2   161  SER161      0.2642
    131  O         41.0860   22.3130   78.5180 O.2   161  SER161     -0.2714
    132  CB        42.4580   22.0560   81.3180 C.3   161  SER161      0.2130
    133  OG        43.3860   22.5240   82.2990 O.3   161  SER161     -0.2179
    134  N         39.4630   22.8020   80.0030 N.am  162  LYS162     -0.1977
    135  CA        38.3640   22.3150   79.1360 C.3   162  LYS162      0.1596
    136  C         38.1650   23.1910   77.9050 C.2   162  LYS162      0.2287
    137  O         38.0560   22.6850   76.7660 O.2   162  LYS162     -0.2864
    138  CB        37.0570   22.0990   79.9350 C.3   162  LYS162      0.0298
    139  CG        35.9610   21.4440   79.1140 C.3   162  LYS162      0.0038
    140  CD        34.8060   21.0350   80.0080 C.3   162  LYS162      0.0206
    141  CE        33.4990   20.7080   79.2620 C.3   162  LYS162      0.1093
    142  NZ        32.5190   20.1840   80.3020 N.3   162  LYS162     -0.1314
@<TRIPOS>BOND
     1    43    44    1
     2    46    45    2
     3   137   136    2
     4    45    44    1
     5    45    54   am
     6    44    47    1
     7    47    48    1
     8   136   135    1
     9    55    54    1
    10    55    56    1
    11    55    58    1
    12    54    60    1
    13    56    57    2
    14   131   130    2
    15    48    50   ar
    16    48    49   ar
    17    50    52   ar
    18    58    59    1
    19   139   138    1
    20   139   140    1
    21   135   138    1
    22   135   134    1
    23    60    59    1
    24   141   140    1
    25   141   142    1
    26   130   134   am
    27   130   129    1
    28    49    51   ar
    29    52    53   ar
    30   125   124    2
    31   129   132    1
    32   129   128    1
    33   127   126    1
    34    51    53   ar
    35    40    39    2
    36   124   128   am
    37   124   123    1
    38   132   133    1
    39   126   123    1
    40   110   111    1
    41   110   107    1
    42   123   122    1
    43   113   111   ar
    44    61    62    1
    45    75    74    1
    46    75    69    1
    47   111   112   ar
    48    39    38    1
    49    66    65    1
    50    66    68    1
    51   107   106    1
    52   107   108    1
    53    62    65    1
    54    62    63    1
    55    38    41    1
    56    38    37    1
    57    74    73    1
    58    33    32    2
    59   109   108    2
    60    42    41    1
    61    65    67    1
    62   108   114   am
    63    69    63   am
    64    69    70    1
    65    63    64    2
    66    73    70    1
    67    32    37   am
    68    32    31    1
    69    36    34    1
    70    70    71    1
    71   114   115    1
    72   121   119    1
    73    31    34    1
    74    31    30    1
    75    34    35    1
    76   115   116    1
    77   115   118    1
    78    24    23    2
    79   119   118    1
    80   119   120    1
    81    71    72    2
    82    71    76   am
    83    99    98    1
    84    99   100    2
    85    20    19    2
    86    98    97    1
    87    98   101    1
    88    30    23   am
    89   116   117    2
    90    23    22    1
    91    97    92   am
    92    76    77    1
    93   101   102    1
    94    19    18    1
    95    19    21   am
    96   102   103    1
    97    18    17    1
    98    92    91    1
    99    92    93    2
   100    22    21    1
   101    22    25    1
   102    91    94    1
   103    91    90    1
   104    78    77    1
   105    78    79    2
   106    94    96    1
   107    94    95    1
   108    77    80    1
   109   103   104    1
   110   104   105    1
   111    25    26    1
   112    13    12    2
   113    17    12   am
   114    80    81    1
   115    80    82    1
   116    12    11    1
   117    83    84    1
   118    26    27    1
   119     8     7    2
   120    11    10    1
   121    11    14    1
   122     7     6    1
   123     7    10   am
   124    86    85    2
   125    27    28    1
   126    84    85    1
   127    84    87    1
   128     6     9    1
   129     6     5    1
   130    28    29    1
   131    16    14    1
   132    14    15    1
   133     5     3   am
   134    89    87    1
   135    88    87    1
   136     3     2    1
   137     3     4    2
   138     2     1    1
