@<TRIPOS>MOLECULE
tmp/2j0wA01.pdb
 184 177 0 0 0
SMALL
GASTEIGER

@<TRIPOS>ATOM
      1  N        -44.2010   37.0800  142.7330 N.3     6  LYS6       -0.1245
      2  CA       -43.9060   36.6620  141.3680 C.3     6  LYS6        0.1561
      3  C        -45.0660   36.9030  140.4180 C.2     6  LYS6        0.2260
      4  O        -46.2190   36.6000  140.7280 O.2     6  LYS6       -0.2867
      5  CB       -43.5040   35.1850  141.3420 C.3     6  LYS6        0.0271
      6  CG       -43.0970   34.6500  139.9690 C.3     6  LYS6        0.0035
      7  CD       -44.2910   34.1730  139.1490 C.3     6  LYS6        0.0206
      8  CE       -43.8150   33.4030  137.9190 C.3     6  LYS6        0.1093
      9  NZ       -44.9040   32.6780  137.1890 N.3     6  LYS6       -0.1314
     10  N        -46.4200   36.3780  136.3900 N.3     8  GLY8       -0.1210
     11  CA       -46.2630   35.6470  135.1480 C.3     8  GLY8        0.1956
     12  C        -46.5790   36.4400  133.8940 C.2     8  GLY8        0.2612
     13  O        -46.8460   37.6430  133.9490 O.2     8  GLY8       -0.2717
     14  N        -46.5620   35.7410  132.7610 N.am    9  GLY9       -0.1942
     15  CA       -46.8250   36.3610  131.4730 C.3     9  GLY9        0.2014
     16  C        -48.0270   37.2760  131.4580 C.2     9  GLY9        0.2639
     17  O        -47.8830   38.4940  131.3220 O.2     9  GLY9       -0.2714
     18  N        -49.2130   36.6920  131.6030 N.am   10  THR10      -0.1950
     19  CA       -50.4480   37.4680  131.6030 C.3    10  THR10       0.1897
     20  C        -50.4020   38.6560  132.5620 C.2    10  THR10       0.2313
     21  O        -50.9250   39.7260  132.2510 O.2    10  THR10      -0.2863
     22  CB       -51.6430   36.6040  131.9930 C.3    10  THR10       0.1794
     23  OG1      -51.4070   36.0250  133.2810 O.3    10  THR10      -0.2208
     24  CG2      -51.8610   35.5090  130.9690 C.3    10  THR10       0.0378
     25  N        -41.6780   37.4320  134.8790 N.3    37  SER37      -0.1217
     26  CA       -41.4420   36.5450  133.7540 C.3    37  SER37       0.1889
     27  C        -41.5400   37.5660  132.6330 C.2    37  SER37       0.2288
     28  O        -41.8260   38.7320  132.8870 O.2    37  SER37      -0.2866
     29  CB       -42.5820   35.5320  133.5740 C.3    37  SER37       0.2089
     30  OG       -42.6560   34.5720  134.6120 O.3    37  SER37      -0.2183
     31  N        -41.5080   27.7960  132.7160 N.3   197  GLY197     -0.1225
     32  CA       -42.1980   27.9870  133.9780 C.3   197  GLY197      0.1811
     33  C        -41.2650   28.2200  135.1450 C.2   197  GLY197      0.2280
     34  O        -41.6930   28.3310  136.2950 O.2   197  GLY197     -0.2866
     35  N        -41.2950   30.5680  138.5660 N.3   200  ASP200     -0.1239
     36  CA       -41.8650   30.2080  139.8710 C.3   200  ASP200      0.1674
     37  C        -40.7220   29.7440  140.7380 C.2   200  ASP200      0.2266
     38  O        -40.5780   30.1330  141.9080 O.2   200  ASP200     -0.2867
     39  CB       -42.8570   29.0420  139.7790 C.3   200  ASP200      0.1410
     40  CG       -44.1430   29.4170  139.0920 C.2   200  ASP200      0.3668
     41  OD1      -44.6560   30.5360  139.3530 O.co2 200  ASP200     -0.2456
     42  OD2      -44.6450   28.5760  138.3040 O.co2 200  ASP200     -0.2456
     43  N        -47.2960   33.9770  144.4890 N.3   217  ILE217     -0.1231
     44  CA       -47.3650   33.6570  143.0710 C.3   217  ILE217      0.1692
     45  C        -48.6210   34.2910  142.4700 C.2   217  ILE217      0.2592
     46  O        -49.7440   33.8680  142.7590 O.2   217  ILE217     -0.2718
     47  CB       -47.4200   32.1140  142.8380 C.3   217  ILE217      0.0266
     48  CG1      -46.2090   31.4440  143.4860 C.3   217  ILE217      0.0019
     49  CG2      -47.4470   31.7950  141.3430 C.3   217  ILE217      0.0020
     50  CD1      -44.8750   32.0420  143.0850 C.3   217  ILE217      0.0001
     51  N        -48.4380   35.3050  141.6350 N.am  218  TRP218     -0.1962
     52  CA       -49.5730   35.9660  141.0070 C.3   218  TRP218      0.1771
     53  C        -49.7640   35.4690  139.5780 C.2   218  TRP218      0.2620
     54  O        -48.9490   35.7340  138.7090 O.2   218  TRP218     -0.2715
     55  CB       -49.3730   37.4850  141.0430 C.3   218  TRP218      0.0590
     56  CG       -49.4490   38.0400  142.4530 C.ar  218  TRP218      0.0006
     57  CD1      -48.4060   38.4370  143.2490 C.ar  218  TRP218      0.0946
     58  CD2      -50.6300   38.1660  143.2530 C.ar  218  TRP218      0.0152
     59  NE1      -48.8670   38.7930  144.4970 N.ar  218  TRP218     -0.2442
     60  CE2      -50.2300   38.6370  144.5240 C.ar  218  TRP218      0.0810
     61  CE3      -51.9930   37.9210  143.0190 C.ar  218  TRP218      0.0012
     62  CZ2      -51.1420   38.8690  145.5560 C.ar  218  TRP218      0.0191
     63  CZ3      -52.8990   38.1520  144.0460 C.ar  218  TRP218      0.0001
     64  CH2      -52.4690   38.6220  145.2970 C.ar  218  TRP218      0.0015
     65  N        -50.8490   34.7420  139.3400 N.am  219  THR219     -0.1937
     66  CA       -51.1050   34.1970  138.0160 C.3   219  THR219      0.2028
     67  C        -52.4000   34.7070  137.3930 C.2   219  THR219      0.2642
     68  O        -52.8490   35.7990  137.7240 O.2   219  THR219     -0.2714
     69  CB       -51.1080   32.6510  138.0600 C.3   219  THR219      0.1808
     70  OG1      -51.4560   32.1310  136.7720 O.3   219  THR219     -0.2208
     71  CG2      -52.0870   32.1570  139.0820 C.3   219  THR219      0.0379
     72  N        -52.9880   33.9210  136.4900 N.am  220  ASP220     -0.1957
     73  CA       -54.2220   34.2960  135.8030 C.3   220  ASP220      0.1840
     74  C        -55.4120   33.4530  136.2830 C.2   220  ASP220      0.2621
     75  O        -56.4230   33.3060  135.5870 O.2   220  ASP220     -0.2715
     76  CB       -54.0400   34.1330  134.2900 C.3   220  ASP220      0.1450
     77  CG       -53.9450   32.6790  133.8580 C.2   220  ASP220      0.3671
     78  OD1      -53.8980   31.7960  134.7340 O.co2 220  ASP220     -0.2456
     79  OD2      -53.9200   32.4120  132.6380 O.co2 220  ASP220     -0.2456
     80  N        -55.2730   32.8970  137.4830 N.am  221  VAL221     -0.1977
     81  CA       -56.3020   32.0640  138.0990 C.3   221  VAL221      0.1596
     82  C        -56.1760   32.2400  139.6050 C.2   221  VAL221      0.2287
     83  O        -55.0970   32.0810  140.1580 O.2   221  VAL221     -0.2864
     84  CB       -56.1030   30.5880  137.7350 C.3   221  VAL221      0.0276
     85  CG1      -56.4230   29.7100  138.9280 C.3   221  VAL221      0.0022
     86  CG2      -56.9870   30.2340  136.5610 C.3   221  VAL221      0.0022
     87  N        -55.8330   31.1670  142.7780 N.3   223  GLY223     -0.1210
     88  CA       -55.4810   30.0150  143.6000 C.3   223  GLY223      0.1956
     89  C        -55.2420   28.6950  142.8810 C.2   223  GLY223      0.2612
     90  O        -55.1630   28.6470  141.6540 O.2   223  GLY223     -0.2717
     91  N        -55.1170   27.6220  143.6580 N.am  224  ILE224     -0.1965
     92  CA       -54.9020   26.2750  143.1290 C.3   224  ILE224      0.1727
     93  C        -56.2550   25.5380  143.1810 C.2   224  ILE224      0.2616
     94  O        -56.8830   25.4560  144.2390 O.2   224  ILE224     -0.2715
     95  CB       -53.8540   25.5090  143.9960 C.3   224  ILE224      0.0290
     96  CG1      -52.5400   26.2930  144.0500 C.3   224  ILE224      0.0022
     97  CG2      -53.5950   24.1170  143.4300 C.3   224  ILE224      0.0023
     98  CD1      -51.5140   25.6920  145.0090 C.3   224  ILE224      0.0001
     99  N        -56.7050   25.0080  142.0500 N.am  225  TYR225     -0.1974
    100  CA       -57.9880   24.3120  142.0100 C.3   225  TYR225      0.1639
    101  C        -57.8620   22.8050  142.1160 C.2   225  TYR225      0.2290
    102  O        -56.7620   22.2770  142.1480 O.2   225  TYR225     -0.2864
    103  CB       -58.7340   24.6610  140.7240 C.3   225  TYR225      0.0560
    104  CG       -59.2870   26.0590  140.7250 C.ar  225  TYR225     -0.0198
    105  CD1      -58.4900   27.1350  141.0920 C.ar  225  TYR225     -0.0009
    106  CD2      -60.6130   26.3070  140.3800 C.ar  225  TYR225     -0.0009
    107  CE1      -58.9910   28.4210  141.1240 C.ar  225  TYR225      0.0417
    108  CE2      -61.1270   27.5980  140.4060 C.ar  225  TYR225      0.0417
    109  CZ       -60.3070   28.6500  140.7820 C.ar  225  TYR225      0.1957
    110  OH       -60.7930   29.9340  140.8260 O.3   225  TYR225     -0.2866
    111  N        -58.2760   20.8580  139.9600 N.3   227  THR227     -0.1203
    112  CA       -57.8460   20.3900  138.6550 C.3   227  THR227      0.1994
    113  C        -57.8490   21.5850  137.7150 C.2   227  THR227      0.2618
    114  O        -58.4880   22.5950  137.9920 O.2   227  THR227     -0.2717
    115  CB       -58.7650   19.2870  138.1100 C.3   227  THR227      0.1784
    116  OG1      -58.0760   18.5520  137.0950 O.3   227  THR227     -0.2211
    117  CG2      -60.0060   19.8820  137.5240 C.3   227  THR227      0.0376
    118  N        -57.1230   21.4710  136.6100 N.am  228  ASP228     -0.1960
    119  CA       -57.0310   22.5490  135.6450 C.3   228  ASP228      0.1825
    120  C        -58.4270   23.0650  135.2810 C.2   228  ASP228      0.2464
    121  O        -59.2500   22.3360  134.7100 O.2   228  ASP228     -0.2730
    122  CB       -56.3060   22.0610  134.3830 C.3   228  ASP228      0.1450
    123  CG       -55.8590   23.2010  133.4850 C.2   228  ASP228      0.3671
    124  OD1      -56.6610   24.1250  133.2390 O.co2 228  ASP228     -0.2456
    125  OD2      -54.7030   23.1710  133.0120 O.co2 228  ASP228     -0.2456
    126  N        -58.7110   24.3380  135.6100 N.am  229  PRO229     -0.2715
    127  CA       -60.0060   24.9530  135.3130 C.3   229  PRO229      0.1536
    128  C        -60.2830   24.9290  133.8310 C.2   229  PRO229      0.2598
    129  O        -61.4290   24.9990  133.4050 O.2   229  PRO229     -0.2715
    130  CB       -59.8350   26.3770  135.8380 C.3   229  PRO229      0.0310
    131  CG       -58.9590   26.1700  137.0100 C.3   229  PRO229      0.0237
    132  CD       -57.8990   25.2570  136.4220 C.3   229  PRO229      0.0939
    133  N        -59.2240   24.8130  133.0420 N.am  230  ARG230     -0.1978
    134  CA       -59.3810   24.7970  131.5980 C.3   230  ARG230      0.1597
    135  C        -59.8610   23.4650  131.0950 C.2   230  ARG230      0.2287
    136  O        -60.1390   23.3220  129.9060 O.2   230  ARG230     -0.2864
    137  CB       -58.0730   25.1480  130.9080 C.3   230  ARG230      0.0334
    138  CG       -57.4400   26.3850  131.4380 C.3   230  ARG230      0.0492
    139  CD       -56.2850   26.8290  130.5840 C.3   230  ARG230      0.2205
    140  NE       -55.7000   28.0390  131.1450 N.pl3 230  ARG230     -0.0865
    141  CZ       -54.8560   28.8320  130.5010 C.cat 230  ARG230      0.5346
    142  NH1      -54.4940   28.5400  129.2600 N.pl3 230  ARG230      0.1354
    143  NH2      -54.3790   29.9140  131.1010 N.pl3 230  ARG230      0.1354
    144  N        -48.8350   17.6330  143.0780 N.3   249  MET249     -0.1245
    145  CA       -49.7910   18.1510  142.0970 C.3   249  MET249      0.1570
    146  C        -48.9990   18.7680  140.9600 C.2   249  MET249      0.2261
    147  O        -49.2650   18.5040  139.7850 O.2   249  MET249     -0.2867
    148  CB       -50.6880   19.2360  142.7000 C.3   249  MET249      0.0387
    149  CG       -51.8350   18.7230  143.5580 C.3   249  MET249      0.0595
    150  SD       -53.0190   20.0290  143.9270 S.3   249  MET249     -0.1393
    151  CE       -53.9360   20.1140  142.3340 C.3   249  MET249      0.0692
    152  N        -48.5580   17.4880  136.8140 N.3   253  GLY253     -0.1210
    153  CA       -49.3450   18.2300  135.8490 C.3   253  GLY253      0.1956
    154  C        -49.9390   19.5550  136.2670 C.2   253  GLY253      0.2612
    155  O        -50.5040   20.2440  135.4180 O.2   253  GLY253     -0.2717
    156  N        -49.8260   19.9210  137.5430 N.am  254  ALA254     -0.1965
    157  CA       -50.3810   21.1880  138.0170 C.3   254  ALA254      0.1728
    158  C        -49.5180   22.3730  137.5610 C.2   254  ALA254      0.2616
    159  O        -48.8170   23.0090  138.3630 O.2   254  ALA254     -0.2715
    160  CB       -50.4930   21.1730  139.5290 C.3   254  ALA254      0.0334
    161  N        -49.5940   22.6680  136.2650 N.am  255  LYS255     -0.1963
    162  CA       -48.8320   23.7450  135.6310 C.3   255  LYS255      0.1728
    163  C        -48.6990   25.0360  136.4610 C.2   255  LYS255      0.2616
    164  O        -47.6470   25.6790  136.4340 O.2   255  LYS255     -0.2715
    165  CB       -49.4620   24.0470  134.2580 C.3   255  LYS255      0.0311
    166  CG       -48.7360   25.0640  133.3880 C.3   255  LYS255      0.0038
    167  CD       -49.4690   25.1930  132.0510 C.3   255  LYS255      0.0206
    168  CE       -48.6400   25.9120  130.9830 C.3   255  LYS255      0.1093
    169  NZ       -48.4190   27.3500  131.2790 N.3   255  LYS255     -0.1314
    170  N        -49.7500   25.4190  137.1930 N.am  256  VAL256     -0.1977
    171  CA       -49.6750   26.6400  137.9890 C.3   256  VAL256      0.1596
    172  C        -48.3920   26.7230  138.7820 C.2   256  VAL256      0.2287
    173  O        -47.9470   27.8090  139.1280 O.2   256  VAL256     -0.2864
    174  CB       -50.8680   26.8240  138.9540 C.3   256  VAL256      0.0276
    175  CG1      -51.9780   27.5090  138.2310 C.3   256  VAL256      0.0022
    176  CG2      -51.3290   25.4980  139.5160 C.3   256  VAL256      0.0022
    177  N        -57.0650   16.2610  140.9470 N.3   300  LEU300     -0.1245
    178  CA       -56.6020   15.4300  139.8540 C.3   300  LEU300      0.1561
    179  C        -55.6380   16.2930  139.0500 C.2   300  LEU300      0.2260
    180  O        -55.8380   17.4990  138.9150 O.2   300  LEU300     -0.2867
    181  CB       -57.7750   15.0080  138.9730 C.3   300  LEU300      0.0270
    182  CG       -58.8920   14.2390  139.6800 C.3   300  LEU300      0.0019
    183  CD1      -60.0550   14.0600  138.7260 C.3   300  LEU300      0.0001
    184  CD2      -58.3710   12.8890  140.1640 C.3   300  LEU300      0.0001
@<TRIPOS>BOND
     1   142   141    1
     2   136   135    2
     3   141   143    1
     4   141   140    2
     5   139   140    1
     6   139   138    1
     7   137   138    1
     8   137   134    1
     9    24    22    1
    10   168   169    1
    11   168   167    1
    12   135   134    1
    13    17    16    2
    14    16    15    1
    15    16    18   am
    16    15    14    1
    17   134   133    1
    18    18    19    1
    19    19    22    1
    20    19    20    1
    21    22    23    1
    22   167   166    1
    23    21    20    2
    24    27    28    2
    25    27    26    1
    26    79    77   ar
    27    31    32    1
    28    14    12   am
    29   125   123   ar
    30   133   128   am
    31   124   123   ar
    32   166   165    1
    33   129   128    2
    34   123   122    1
    35    29    26    1
    36    29    30    1
    37    26    25    1
    38   128   127    1
    39    77    76    1
    40    77    78   ar
    41    12    13    2
    42    12    11    1
    43    32    33    1
    44   165   162    1
    45    76    73    1
    46   122   119    1
    47   121   120    2
    48    33    34    2
    49    11    10    1
    50   120   126   am
    51   120   119    1
    52   127   126    1
    53   127   130    1
    54   155   154    2
    55    75    74    2
    56   126   132    1
    57   162   161    1
    58   162   163    1
    59   119   118    1
    60    73    74    1
    61    73    72    1
    62   130   131    1
    63   153   154    1
    64   153   152    1
    65   161   158   am
    66   154   156   am
    67    74    80   am
    68   132   131    1
    69   164   163    2
    70   163   170   am
    71    72    67   am
    72    86    84    1
    73   118   113   am
    74    70    69    1
    75   116   115    1
    76     9     8    1
    77   170   171    1
    78    67    68    2
    79    67    66    1
    80    80    81    1
    81   117   115    1
    82   156   157    1
    83   158   157    1
    84   158   159    2
    85   113   114    2
    86   113   112    1
    87    84    81    1
    88    84    85    1
    89     8     7    1
    90   171   172    1
    91   171   174    1
    92    66    69    1
    93    66    65    1
    94   157   160    1
    95    69    71    1
    96    81    82    1
    97   115   112    1
    98   175   174    1
    99    42    40   ar
   100    35    36    1
   101   112   111    1
   102    54    53    2
   103   183   182    1
   104   172   173    2
   105   180   179    2
   106   174   176    1
   107   181   182    1
   108   181   178    1
   109   179   178    1
   110    40    41   ar
   111    40    39    1
   112     7     6    1
   113    65    53   am
   114    53    52    1
   115    82    83    2
   116   182   184    1
   117    39    36    1
   118   147   146    2
   119   178   177    1
   120    36    37    1
   121     6     5    1
   122   106   108   ar
   123   106   104   ar
   124   108   109   ar
   125     3     4    2
   126     3     2    1
   127   103   104    1
   128   103   100    1
   129   104   105   ar
   130    37    38    2
   131   109   110    1
   132   109   107   ar
   133   146   145    1
   134    52    55    1
   135    52    51    1
   136    55    56    1
   137   105   107   ar
   138     5     2    1
   139    49    47    1
   140     2     1    1
   141    51    45   am
   142    90    89    2
   143   100    99    1
   144   100   101    1
   145    99    93   am
   146   145   148    1
   147   145   144    1
   148   101   102    2
   149   151   150    1
   150    56    57   ar
   151    56    58   ar
   152    45    46    2
   153    45    44    1
   154   148   149    1
   155    87    88    1
   156    47    44    1
   157    47    48    1
   158    89    88    1
   159    89    91   am
   160    61    58   ar
   161    61    63   ar
   162    44    43    1
   163    50    48    1
   164    92    93    1
   165    92    91    1
   166    92    95    1
   167    93    94    2
   168    57    59   ar
   169    58    60   ar
   170    97    95    1
   171   149   150    1
   172    95    96    1
   173    63    64   ar
   174    96    98    1
   175    59    60   ar
   176    60    62   ar
   177    64    62   ar
