@<TRIPOS>MOLECULE
tmp/2j0wA00.pdb
 88 82 0 0 0
SMALL
GASTEIGER

@<TRIPOS>ATOM
      1  N        -44.2010   37.0800  142.7330 N.3     6  LYS6       -0.1245
      2  CA       -43.9060   36.6620  141.3680 C.3     6  LYS6        0.1561
      3  C        -45.0660   36.9030  140.4180 C.2     6  LYS6        0.2260
      4  O        -46.2190   36.6000  140.7280 O.2     6  LYS6       -0.2867
      5  CB       -43.5040   35.1850  141.3420 C.3     6  LYS6        0.0271
      6  CG       -43.0970   34.6500  139.9690 C.3     6  LYS6        0.0035
      7  CD       -44.2910   34.1730  139.1490 C.3     6  LYS6        0.0206
      8  CE       -43.8150   33.4030  137.9190 C.3     6  LYS6        0.1093
      9  NZ       -44.9040   32.6780  137.1890 N.3     6  LYS6       -0.1314
     10  N        -46.4200   36.3780  136.3900 N.3     8  GLY8       -0.1210
     11  CA       -46.2630   35.6470  135.1480 C.3     8  GLY8        0.1956
     12  C        -46.5790   36.4400  133.8940 C.2     8  GLY8        0.2612
     13  O        -46.8460   37.6430  133.9490 O.2     8  GLY8       -0.2717
     14  N        -46.5620   35.7410  132.7610 N.am    9  GLY9       -0.1956
     15  CA       -46.8250   36.3610  131.4730 C.3     9  GLY9        0.1869
     16  C        -48.0270   37.2760  131.4580 C.2     9  GLY9        0.2309
     17  O        -47.8830   38.4940  131.3220 O.2     9  GLY9       -0.2863
     18  N        -41.6780   37.4320  134.8790 N.3    37  SER37      -0.1202
     19  CA       -41.4420   36.5450  133.7540 C.3    37  SER37       0.2020
     20  C        -41.5400   37.5660  132.6330 C.2    37  SER37       0.2618
     21  O        -41.8260   38.7320  132.8870 O.2    37  SER37      -0.2717
     22  CB       -42.5820   35.5320  133.5740 C.3    37  SER37       0.2103
     23  OG       -42.6560   34.5720  134.6120 O.3    37  SER37      -0.2182
     24  N        -41.3190   37.1440  131.3980 N.am   38  ALA38      -0.1979
     25  CA       -41.4210   38.0670  130.2850 C.3    38  ALA38       0.1597
     26  C        -42.9050   38.1810  129.9750 C.2    38  ALA38       0.2287
     27  O        -43.7000   37.3290  130.3760 O.2    38  ALA38      -0.2864
     28  CB       -40.6590   37.5210  129.0850 C.3    38  ALA38       0.0319
     29  N        -41.6300   34.7770  125.3500 N.3    43  THR43      -0.1218
     30  CA       -40.7970   33.5830  125.3880 C.3    43  THR43       0.1862
     31  C        -41.0280   32.6370  124.2180 C.2    43  THR43       0.2287
     32  O        -40.0600   32.1170  123.6600 O.2    43  THR43      -0.2866
     33  CB       -40.9530   32.8320  126.7330 C.3    43  THR43       0.1770
     34  OG1      -40.4550   33.6650  127.7900 O.3    43  THR43      -0.2211
     35  CG2      -40.1510   31.5240  126.7270 C.3    43  THR43       0.0375
     36  N        -37.3640   38.2960  129.8890 N.3   117  GLU117     -0.1245
     37  CA       -37.4630   38.7870  131.2590 C.3   117  GLU117      0.1567
     38  C        -36.5830   40.0290  131.4570 C.2   117  GLU117      0.2260
     39  O        -36.7920   40.8020  132.3850 O.2   117  GLU117     -0.2867
     40  CB       -37.0780   37.7050  132.2720 C.3   117  GLU117      0.0388
     41  CG       -36.8640   36.2980  131.7100 C.3   117  GLU117      0.1160
     42  CD       -38.0990   35.6730  131.0980 C.2   117  GLU117      0.3649
     43  OE1      -38.0760   35.4040  129.8840 O.co2 117  GLU117     -0.2457
     44  OE2      -39.0850   35.4410  131.8220 O.co2 117  GLU117     -0.2457
     45  N        -36.5370   32.6740  135.9440 N.3   182  PHE182     -0.1241
     46  CA       -36.2500   31.8190  134.7890 C.3   182  PHE182      0.1605
     47  C        -34.7950   31.7680  134.2900 C.2   182  PHE182      0.2264
     48  O        -34.3720   30.7510  133.7190 O.2   182  PHE182     -0.2867
     49  CB       -37.1740   32.2300  133.6410 C.3   182  PHE182      0.0534
     50  CG       -36.9520   31.4810  132.3640 C.ar  182  PHE182     -0.0203
     51  CD1      -37.0440   30.0920  132.3310 C.ar  182  PHE182     -0.0042
     52  CD2      -36.7810   32.1710  131.1630 C.ar  182  PHE182     -0.0042
     53  CE1      -36.9880   29.3920  131.1120 C.ar  182  PHE182     -0.0003
     54  CE2      -36.7230   31.4830  129.9270 C.ar  182  PHE182     -0.0003
     55  CZ       -36.8310   30.0910  129.9040 C.ar  182  PHE182     -0.0000
     56  N        -38.8710   25.9260  131.1630 N.3   196  ARG196     -0.1231
     57  CA       -40.1840   26.5580  131.0870 C.3   196  ARG196      0.1694
     58  C        -40.8640   26.6580  132.4540 C.2   196  ARG196      0.2593
     59  O        -40.7990   25.7220  133.2560 O.2   196  ARG196     -0.2718
     60  CB       -41.0870   25.7830  130.1280 C.3   196  ARG196      0.0321
     61  CG       -40.5310   25.6350  128.7150 C.3   196  ARG196      0.0489
     62  CD       -39.9970   26.9560  128.1660 C.3   196  ARG196      0.2205
     63  NE       -41.0200   27.9980  128.0870 N.pl3 196  ARG196     -0.0865
     64  CZ       -41.7200   28.2930  126.9930 C.cat 196  ARG196      0.5346
     65  NH1      -41.5100   27.6210  125.8660 N.pl3 196  ARG196      0.1354
     66  NH2      -42.6320   29.2640  127.0260 N.pl3 196  ARG196      0.1354
     67  N        -41.5080   27.7960  132.7160 N.am  197  GLY197     -0.1942
     68  CA       -42.1980   27.9870  133.9780 C.3   197  GLY197      0.2014
     69  C        -41.2650   28.2200  135.1450 C.2   197  GLY197      0.2639
     70  O        -41.6930   28.3310  136.2950 O.2   197  GLY197     -0.2714
     71  N        -39.9820   28.3110  134.8320 N.am  198  GLY198     -0.1939
     72  CA       -38.9560   28.5010  135.8380 C.3   198  GLY198      0.2014
     73  C        -39.0330   29.7690  136.6530 C.2   198  GLY198      0.2640
     74  O        -38.3280   29.9040  137.6640 O.2   198  GLY198     -0.2714
     75  N        -39.8600   30.7150  136.2360 N.am  199  SER199     -0.1935
     76  CA       -39.9540   31.9360  137.0250 C.3   199  SER199      0.2055
     77  C        -40.5200   31.6520  138.4200 C.2   199  SER199      0.2643
     78  O        -40.2570   32.4130  139.3460 O.2   199  SER199     -0.2714
     79  CB       -40.8100   32.9900  136.3140 C.3   199  SER199      0.2130
     80  OG       -40.1280   33.5150  135.1850 O.3   199  SER199     -0.2179
     81  N        -41.2950   30.5680  138.5660 N.am  200  ASP200     -0.1971
     82  CA       -41.8650   30.2080  139.8710 C.3   200  ASP200      0.1709
     83  C        -40.7220   29.7440  140.7380 C.2   200  ASP200      0.2293
     84  O        -40.5780   30.1330  141.9080 O.2   200  ASP200     -0.2864
     85  CB       -42.8570   29.0420  139.7790 C.3   200  ASP200      0.1436
     86  CG       -44.1430   29.4170  139.0920 C.2   200  ASP200      0.3671
     87  OD1      -44.6560   30.5360  139.3530 O.co2 200  ASP200     -0.2456
     88  OD2      -44.6450   28.5760  138.3040 O.co2 200  ASP200     -0.2456
@<TRIPOS>BOND
     1    32    31    2
     2    31    30    1
     3    29    30    1
     4    30    33    1
     5    65    64    1
     6    35    33    1
     7    33    34    1
     8    64    66    1
     9    64    63    2
    10    63    62    1
    11    62    61    1
    12    61    60    1
    13    28    25    1
    14    43    42   ar
    15    36    37    1
    16    55    54   ar
    17    55    53   ar
    18    54    52   ar
    19    26    25    1
    20    26    27    2
    21    60    57    1
    22    25    24    1
    23    57    56    1
    24    57    58    1
    25    42    41    1
    26    42    44   ar
    27    53    51   ar
    28    52    50   ar
    29    37    38    1
    30    37    40    1
    31    17    16    2
    32    24    20   am
    33    38    39    2
    34    16    15    1
    35    15    14    1
    36    41    40    1
    37    51    50   ar
    38    50    49    1
    39    58    67   am
    40    58    59    2
    41    20    21    2
    42    20    19    1
    43    67    68    1
    44    14    12   am
    45    22    19    1
    46    22    23    1
    47    49    46    1
    48    48    47    2
    49    19    18    1
    50    12    13    2
    51    12    11    1
    52    68    69    1
    53    47    46    1
    54    46    45    1
    55    71    69   am
    56    71    72    1
    57    69    70    2
    58    11    10    1
    59    80    79    1
    60    72    73    1
    61    75    73   am
    62    75    76    1
    63    79    76    1
    64    73    74    2
    65    76    77    1
    66     9     8    1
    67     8     7    1
    68    88    86   ar
    69    77    81   am
    70    77    78    2
    71    81    82    1
    72    86    87   ar
    73    86    85    1
    74     7     6    1
    75    85    82    1
    76    82    83    1
    77     6     5    1
    78     3     4    2
    79     3     2    1
    80    83    84    2
    81     5     2    1
    82     2     1    1
