@<TRIPOS>MOLECULE
tmp/2j0xB01.pdb
 106 105 0 0 0
SMALL
GASTEIGER

@<TRIPOS>ATOM
      1  N         26.8710   87.5020   35.6970 N.3   317  MET317     -0.1230
      2  CA        26.3110   88.0400   34.4580 C.3   317  MET317      0.1702
      3  C         27.3990   88.0460   33.3980 C.2   317  MET317      0.2592
      4  O         27.1090   88.0840   32.2090 O.2   317  MET317     -0.2718
      5  CB        25.7920   89.4680   34.6220 C.3   317  MET317      0.0401
      6  CG        26.8770   90.5270   34.6400 C.3   317  MET317      0.0596
      7  SD        26.1550   92.1590   34.7810 S.3   317  MET317     -0.1393
      8  CE        25.5010   92.0800   36.4660 C.3   317  MET317      0.0692
      9  N         28.6530   88.0040   33.8390 N.am  318  LEU318     -0.1966
     10  CA        29.7850   88.0220   32.9210 C.3   318  LEU318      0.1728
     11  C         29.7350   86.8400   31.9630 C.2   318  LEU318      0.2616
     12  O         29.8910   85.6880   32.3680 O.2   318  LEU318     -0.2715
     13  CB        31.1040   88.0090   33.6960 C.3   318  LEU318      0.0311
     14  CG        32.2670   88.7990   33.0790 C.3   318  LEU318      0.0022
     15  CD1       33.4910   88.6070   33.9490 C.3   318  LEU318      0.0001
     16  CD2       32.5640   88.3480   31.6540 C.3   318  LEU318      0.0001
     17  N         29.5240   87.1560   30.6860 N.am  319  HIS319     -0.1959
     18  CA        29.4230   86.1850   29.5920 C.3   319  HIS319      0.1787
     19  C         28.1830   85.3090   29.6420 C.2   319  HIS319      0.2621
     20  O         28.0510   84.3720   28.8580 O.2   319  HIS319     -0.2715
     21  CB        30.6600   85.3070   29.5370 C.3   319  HIS319      0.0785
     22  CG        31.8910   86.0450   29.1310 C.ar  319  HIS319      0.0821
     23  ND1       33.1170   85.8330   29.7260 N.ar  319  HIS319     -0.2267
     24  CD2       32.0880   86.9970   28.1890 C.ar  319  HIS319      0.1154
     25  CE1       34.0150   86.6250   29.1690 C.ar  319  HIS319      0.1986
     26  NE2       33.4160   87.3410   28.2340 N.ar  319  HIS319     -0.2212
     27  N         27.2710   85.6170   30.5570 N.am  320  SER320     -0.1936
     28  CA        26.0450   84.8490   30.6820 C.3   320  SER320      0.2055
     29  C         25.0250   85.4170   29.7020 C.2   320  SER320      0.2643
     30  O         25.1320   86.5720   29.2950 O.2   320  SER320     -0.2714
     31  CB        25.5170   84.9540   32.1160 C.3   320  SER320      0.2130
     32  OG        24.2770   84.2820   32.2760 O.3   320  SER320     -0.2179
     33  N         24.0560   84.5980   29.3030 N.am  321  ARG321     -0.1963
     34  CA        22.9900   85.0460   28.4100 C.3   321  ARG321      0.1729
     35  C         21.6950   85.0900   29.2120 C.2   321  ARG321      0.2617
     36  O         21.4450   84.2140   30.0370 O.2   321  ARG321     -0.2715
     37  CB        22.7920   84.0790   27.2490 C.3   321  ARG321      0.0348
     38  CG        23.8860   84.0440   26.2110 C.3   321  ARG321      0.0492
     39  CD        23.4690   83.0890   25.1000 C.3   321  ARG321      0.2205
     40  NE        24.6070   82.6110   24.3230 N.pl3 321  ARG321     -0.0865
     41  CZ        24.7190   81.3720   23.8490 C.cat 321  ARG321      0.5346
     42  NH1       23.7570   80.4840   24.0740 N.pl3 321  ARG321      0.1354
     43  NH2       25.7970   81.0170   23.1610 N.pl3 321  ARG321      0.1354
     44  N         20.8810   86.1110   28.9790 N.am  322  GLY322     -0.1940
     45  CA        19.6150   86.2160   29.6810 C.3   322  GLY322      0.2014
     46  C         19.6240   86.7500   31.0980 C.2   322  GLY322      0.2639
     47  O         18.5730   86.7610   31.7440 O.2   322  GLY322     -0.2714
     48  N         20.7740   87.1840   31.6030 N.am  323  PHE323     -0.1959
     49  CA        20.7850   87.7070   32.9530 C.3   323  PHE323      0.1771
     50  C         19.8630   88.9260   33.0050 C.2   323  PHE323      0.2619
     51  O         19.0070   89.0370   33.8890 O.2   323  PHE323     -0.2715
     52  CB        22.1870   88.1150   33.3870 C.3   323  PHE323      0.0574
     53  CG        22.2360   88.5730   34.8060 C.ar  323  PHE323     -0.0200
     54  CD1       22.3360   87.6540   35.8380 C.ar  323  PHE323     -0.0042
     55  CD2       22.0450   89.9100   35.1200 C.ar  323  PHE323     -0.0042
     56  CE1       22.2350   88.0580   37.1630 C.ar  323  PHE323     -0.0003
     57  CE2       21.9420   90.3210   36.4390 C.ar  323  PHE323     -0.0003
     58  CZ        22.0350   89.3940   37.4620 C.ar  323  PHE323     -0.0000
     59  N         20.0430   89.8340   32.0490 N.am  324  LEU324     -0.1963
     60  CA        19.2290   91.0510   31.9670 C.3   324  LEU324      0.1728
     61  C         17.7960   90.7060   31.5940 C.2   324  LEU324      0.2616
     62  O         16.8420   91.3050   32.0970 O.2   324  LEU324     -0.2715
     63  CB        19.7850   92.0140   30.9070 C.3   324  LEU324      0.0311
     64  CG        21.1310   92.7130   31.1370 C.3   324  LEU324      0.0022
     65  CD1       21.6050   93.3040   29.8190 C.3   324  LEU324      0.0001
     66  CD2       21.0130   93.7860   32.2100 C.3   324  LEU324      0.0001
     67  N         17.6580   89.7500   30.6860 N.am  325  ALA325     -0.1977
     68  CA        16.3450   89.3200   30.2410 C.3   325  ALA325      0.1597
     69  C         15.4770   88.9820   31.4430 C.2   325  ALA325      0.2287
     70  O         14.2890   89.3170   31.4700 O.2   325  ALA325     -0.2864
     71  CB        16.4740   88.1020   29.3340 C.3   325  ALA325      0.0319
     72  N         26.2140  100.1320   32.2690 N.3   343  THR343     -0.1203
     73  CA        26.8290   98.8550   32.6100 C.3   343  THR343      0.1994
     74  C         28.3360   98.8990   32.8010 C.2   343  THR343      0.2619
     75  O         29.0290   99.7620   32.2750 O.2   343  THR343     -0.2717
     76  CB        26.5860   97.8060   31.4950 C.3   343  THR343      0.1784
     77  OG1       27.1370   98.3010   30.2700 O.3   343  THR343     -0.2211
     78  CG2       25.1060   97.5400   31.2830 C.3   343  THR343      0.0376
     79  N         28.8250   97.9360   33.5660 N.am  344  SER344     -0.1937
     80  CA        30.2480   97.7520   33.7970 C.3   344  SER344      0.2055
     81  C         30.3740   96.2670   33.4250 C.2   344  SER344      0.2642
     82  O         29.4120   95.6690   32.9430 O.2   344  SER344     -0.2714
     83  CB        30.6150   97.9770   35.2660 C.3   344  SER344      0.2130
     84  OG        30.4120   96.7970   36.0220 O.3   344  SER344     -0.2179
     85  N         31.5200   95.6470   33.6460 N.am  345  GLU345     -0.1976
     86  CA        31.6100   94.2570   33.2580 C.3   345  GLU345      0.1602
     87  C         30.7970   93.3020   34.1030 C.2   345  GLU345      0.2287
     88  O         30.1810   92.3910   33.5650 O.2   345  GLU345     -0.2864
     89  CB        33.0620   93.8140   33.1890 C.3   345  GLU345      0.0415
     90  CG        33.7930   94.4080   31.9830 C.3   345  GLU345      0.1163
     91  CD        33.0580   94.1810   30.6590 C.2   345  GLU345      0.3649
     92  OE1       31.9410   94.7210   30.4870 O.co2 345  GLU345     -0.2457
     93  OE2       33.5940   93.4650   29.7860 O.co2 345  GLU345     -0.2457
     94  N         28.4470   94.4420   36.6750 N.3   347  SER347     -0.1202
     95  CA        27.3990   95.1310   37.4040 C.3   347  SER347      0.2020
     96  C         26.6230   96.0210   36.4400 C.2   347  SER347      0.2618
     97  O         27.1460   96.4420   35.4060 O.2   347  SER347     -0.2717
     98  CB        27.9830   95.9460   38.5710 C.3   347  SER347      0.2103
     99  OG        28.5880   97.1450   38.1310 O.3   347  SER347     -0.2182
    100  N         25.3580   96.2630   36.7680 N.am  348  VAL348     -0.1979
    101  CA        24.4880   97.0980   35.9550 C.3   348  VAL348      0.1595
    102  C         23.7110   98.0260   36.8920 C.2   348  VAL348      0.2287
    103  O         23.2330   97.6040   37.9480 O.2   348  VAL348     -0.2864
    104  CB        23.5210   96.2240   35.1100 C.3   348  VAL348      0.0276
    105  CG1       22.8180   95.2290   35.9970 C.3   348  VAL348      0.0022
    106  CG2       22.5100   97.0940   34.3970 C.3   348  VAL348      0.0022
@<TRIPOS>BOND
     1    43    41    1
     2    41    42    1
     3    41    40    2
     4    40    39    1
     5    39    38    1
     6    38    37    1
     7    37    34    1
     8    24    26   ar
     9    24    22   ar
    10    26    25   ar
    11    34    35    1
    12    34    33    1
    13    20    19    2
    14    44    35   am
    15    44    45    1
    16    22    21    1
    17    22    23   ar
    18    25    23   ar
    19    35    36    2
    20    30    29    2
    21    33    29   am
    22    71    68    1
    23    21    18    1
    24    18    19    1
    25    18    17    1
    26    19    27   am
    27    45    46    1
    28    29    28    1
    29    93    91   ar
    30    65    64    1
    31    68    67    1
    32    68    69    1
    33    77    76    1
    34    92    91   ar
    35    27    28    1
    36    91    90    1
    37    28    31    1
    38    67    61   am
    39    17    11   am
    40    63    64    1
    41    63    60    1
    42    46    48   am
    43    46    47    2
    44    64    66    1
    45    78    76    1
    46    69    70    2
    47    76    73    1
    48    61    60    1
    49    61    62    2
    50    48    49    1
    51    16    14    1
    52    11    12    2
    53    11    10    1
    54    60    59    1
    55    90    89    1
    56    59    50   am
    57    31    32    1
    58     4     3    2
    59    72    73    1
    60    75    74    2
    61    73    74    1
    62    74    79   am
    63    10    13    1
    64    10     9    1
    65    82    81    2
    66    49    50    1
    67    49    52    1
    68    50    51    2
    69    14    13    1
    70    14    15    1
    71    89    86    1
    72    86    85    1
    73    86    87    1
    74    52    53    1
    75     3     9   am
    76     3     2    1
    77    81    85   am
    78    81    80    1
    79    88    87    2
    80    79    80    1
    81    80    83    1
    82   106   104    1
    83     2     5    1
    84     2     1    1
    85     5     6    1
    86     6     7    1
    87     7     8    1
    88    53    55   ar
    89    53    54   ar
    90   104   101    1
    91   104   105    1
    92    55    57   ar
    93    83    84    1
    94    97    96    2
    95    54    56   ar
    96   101   100    1
    97   101   102    1
    98    57    58   ar
    99    96   100   am
   100    96    95    1
   101    94    95    1
   102   102   103    2
   103    56    58   ar
   104    95    98    1
   105    99    98    1
