@<TRIPOS>MOLECULE
tmp/2j14B00.pdb
 235 222 0 0 0
SMALL
GASTEIGER

@<TRIPOS>ATOM
      1  N          3.1930   25.1690   52.7900 N.3    34  ILE34      -0.1245
      2  CA         1.9280   25.5830   52.2010 C.3    34  ILE34       0.1561
      3  C          0.7990   25.0690   53.0860 C.2    34  ILE34       0.2260
      4  O          0.5510   23.8620   53.1350 O.2    34  ILE34      -0.2867
      5  CB         1.7720   24.9780   50.8050 C.3    34  ILE34       0.0252
      6  CG1        2.9480   25.4130   49.9290 C.3    34  ILE34       0.0019
      7  CG2        0.4330   25.3840   50.2080 C.3    34  ILE34       0.0019
      8  CD1        2.9500   24.7930   48.5510 C.3    34  ILE34       0.0001
      9  N          0.1080   29.3090   49.7560 N.3    40  LEU40      -0.1245
     10  CA         0.0630   28.6520   48.4610 C.3    40  LEU40       0.1561
     11  C          0.5140   29.6410   47.3830 C.2    40  LEU40       0.2260
     12  O          1.3640   29.3150   46.5560 O.2    40  LEU40      -0.2867
     13  CB        -1.3520   28.1450   48.1600 C.3    40  LEU40       0.0270
     14  CG        -1.5080   27.4110   46.8300 C.3    40  LEU40       0.0019
     15  CD1       -0.5000   26.2880   46.7570 C.3    40  LEU40       0.0001
     16  CD2       -2.9130   26.8780   46.7000 C.3    40  LEU40       0.0001
     17  N         -6.1270   23.5100   44.5330 N.3    58  VAL58      -0.1231
     18  CA        -5.2970   22.3940   44.9650 C.3    58  VAL58       0.1692
     19  C         -5.5450   21.1810   44.0770 C.2    58  VAL58       0.2592
     20  O         -4.6300   20.4080   43.8050 O.2    58  VAL58      -0.2718
     21  CB        -5.5900   22.0110   46.4270 C.3    58  VAL58       0.0266
     22  CG1       -4.6840   20.8750   46.8610 C.3    58  VAL58       0.0020
     23  CG2       -5.3930   23.2160   47.3210 C.3    58  VAL58       0.0020
     24  N         -6.7880   21.0180   43.6290 N.am   59  PHE59      -0.1976
     25  CA        -7.1390   19.8970   42.7650 C.3    59  PHE59       0.1639
     26  C         -6.2280   19.9060   41.5470 C.2    59  PHE59       0.2290
     27  O         -5.6800   18.8770   41.1610 O.2    59  PHE59      -0.2864
     28  CB        -8.5950   20.0060   42.3120 C.3    59  PHE59       0.0560
     29  CG        -9.0420   18.8770   41.4200 C.ar   59  PHE59      -0.0200
     30  CD1       -9.0800   17.5700   41.8950 C.ar   59  PHE59      -0.0042
     31  CD2       -9.4340   19.1230   40.1050 C.ar   59  PHE59      -0.0042
     32  CE1       -9.5030   16.5200   41.0730 C.ar   59  PHE59      -0.0003
     33  CE2       -9.8610   18.0800   39.2740 C.ar   59  PHE59      -0.0003
     34  CZ        -9.8950   16.7740   39.7610 C.ar   59  PHE59      -0.0000
     35  N         -3.4180   21.3560   41.4150 N.3    61  ARG61      -0.1231
     36  CA        -2.0490   21.2160   41.9040 C.3    61  ARG61       0.1694
     37  C         -1.6890   19.7320   41.9490 C.2    61  ARG61       0.2592
     38  O         -0.5860   19.3380   41.5740 O.2    61  ARG61      -0.2718
     39  CB        -1.9190   21.8300   43.3000 C.3    61  ARG61       0.0321
     40  CG        -1.3130   23.2270   43.3140 C.3    61  ARG61       0.0489
     41  CD         0.1540   23.1630   42.9500 C.3    61  ARG61       0.2205
     42  NE         0.5220   24.1000   41.8930 N.pl3  61  ARG61      -0.0865
     43  CZ         1.3530   23.7950   40.9010 C.cat  61  ARG61       0.5346
     44  NH1        1.8860   22.5790   40.8400 N.pl3  61  ARG61       0.1354
     45  NH2        1.6630   24.6970   39.9780 N.pl3  61  ARG61       0.1354
     46  N         -2.6310   18.9140   42.4090 N.am   62  CYS62      -0.1956
     47  CA        -2.4330   17.4730   42.4880 C.3    62  CYS62       0.1843
     48  C         -2.2430   16.9290   41.0890 C.2    62  CYS62       0.2625
     49  O         -1.4790   15.9870   40.8740 O.2    62  CYS62      -0.2714
     50  CB        -3.6440   16.7950   43.1240 C.3    62  CYS62       0.0997
     51  SG        -3.8810   17.1890   44.8570 S.3    62  CYS62      -0.0797
     52  N         -2.9500   17.5240   40.1360 N.am   63  GLN63      -0.1977
     53  CA        -2.8450   17.0850   38.7560 C.3    63  GLN63       0.1601
     54  C         -1.4640   17.3780   38.1900 C.2    63  GLN63       0.2287
     55  O         -0.9240   16.5790   37.4310 O.2    63  GLN63      -0.2864
     56  CB        -3.9310   17.7350   37.8990 C.3    63  GLN63       0.0394
     57  CG        -5.3070   17.1180   38.1010 C.3    63  GLN63       0.0908
     58  CD        -6.3520   17.7220   37.1940 C.2    63  GLN63       0.2608
     59  OE1       -6.1920   17.7410   35.9800 O.2    63  GLN63      -0.2717
     60  NE2       -7.4310   18.2180   37.7800 N.am   63  GLN63      -0.0878
     61  N          1.3220   17.3390   39.7470 N.3    65  THR65      -0.1203
     62  CA         2.1430   16.2730   40.2990 C.3    65  THR65       0.1994
     63  C          2.0240   14.9550   39.5520 C.2    65  THR65       0.2618
     64  O          3.0170   14.4260   39.0590 O.2    65  THR65      -0.2717
     65  CB         1.7910   16.0090   41.7730 C.3    65  THR65       0.1784
     66  OG1        1.6690   17.2530   42.4720 O.3    65  THR65      -0.2211
     67  CG2        2.8820   15.1770   42.4330 C.3    65  THR65       0.0376
     68  N          0.8110   14.4180   39.4710 N.am   66  THR66      -0.1952
     69  CA         0.6160   13.1400   38.8000 C.3    66  THR66       0.1897
     70  C          1.0230   13.1420   37.3320 C.2    66  THR66       0.2313
     71  O          1.5040   12.1300   36.8230 O.2    66  THR66      -0.2863
     72  CB        -0.8440   12.6400   38.9400 C.3    66  THR66       0.1794
     73  OG1       -1.7570   13.6610   38.5290 O.3    66  THR66      -0.2208
     74  CG2       -1.1290   12.2760   40.3790 C.3    66  THR66       0.0378
     75  N         -1.2680    4.9780   38.2120 N.3   100  HIS100     -0.1241
     76  CA        -1.7130    5.5660   39.4770 C.3   100  HIS100      0.1621
     77  C         -1.3540    4.7380   40.7020 C.2   100  HIS100      0.2264
     78  O         -1.2120    5.2800   41.7960 O.2   100  HIS100     -0.2867
     79  CB        -3.2180    5.8260   39.4620 C.3   100  HIS100      0.0745
     80  CG        -3.5870    7.1570   38.8940 C.ar  100  HIS100      0.0817
     81  ND1       -3.5250    7.4350   37.5460 N.ar  100  HIS100     -0.2268
     82  CD2       -3.9790    8.3040   39.4970 C.ar  100  HIS100      0.1154
     83  CE1       -3.8620    8.6960   37.3420 C.ar  100  HIS100      0.1986
     84  NE2       -4.1410    9.2450   38.5100 N.ar  100  HIS100     -0.2212
     85  N          1.0770    6.4510   43.7450 N.3   104  PHE104     -0.1241
     86  CA         0.7760    6.4780   45.1680 C.3   104  PHE104      0.1605
     87  C          1.8130    5.7570   46.0060 C.2   104  PHE104      0.2264
     88  O          1.9070    5.9810   47.2120 O.2   104  PHE104     -0.2867
     89  CB        -0.6050    5.8790   45.4350 C.3   104  PHE104      0.0534
     90  CG        -1.7380    6.6780   44.8550 C.ar  104  PHE104     -0.0203
     91  CD1       -1.6520    8.0620   44.7560 C.ar  104  PHE104     -0.0042
     92  CD2       -2.9030    6.0480   44.4380 C.ar  104  PHE104     -0.0042
     93  CE1       -2.7040    8.8040   44.2520 C.ar  104  PHE104     -0.0003
     94  CE2       -3.9630    6.7830   43.9320 C.ar  104  PHE104     -0.0003
     95  CZ        -3.8630    8.1660   43.8390 C.ar  104  PHE104     -0.0000
     96  N          4.8590    8.5530   45.7700 N.3   107  LEU107     -0.1231
     97  CA         4.4460    9.6530   46.6210 C.3   107  LEU107      0.1693
     98  C          4.5100    9.3600   48.1130 C.2   107  LEU107      0.2591
     99  O          4.9000   10.2240   48.8970 O.2   107  LEU107     -0.2718
    100  CB         3.0340   10.0960   46.2440 C.3   107  LEU107      0.0284
    101  CG         2.8770   10.6310   44.8210 C.3   107  LEU107      0.0019
    102  CD1        1.4720   11.1830   44.6560 C.3   107  LEU107      0.0001
    103  CD2        3.9090   11.7170   44.5430 C.3   107  LEU107      0.0001
    104  N          4.1260    8.1550   48.5130 N.am  108  ALA108     -0.1980
    105  CA         4.1600    7.8060   49.9250 C.3   108  ALA108      0.1597
    106  C          5.5530    8.0820   50.4800 C.2   108  ALA108      0.2287
    107  O          5.7180    8.4960   51.6260 O.2   108  ALA108     -0.2864
    108  CB         3.8040    6.3430   50.1100 C.3   108  ALA108      0.0319
    109  N          5.7600   11.5120   51.9590 N.3   111  VAL111     -0.1245
    110  CA         4.7150   11.8540   52.9070 C.3   111  VAL111      0.1561
    111  C          4.9750   11.3640   54.3260 C.2   111  VAL111      0.2260
    112  O          5.6530   10.3620   54.5350 O.2   111  VAL111     -0.2867
    113  CB         3.3790   11.2300   52.4370 C.3   111  VAL111      0.0252
    114  CG1        2.3090   11.3990   53.4960 C.3   111  VAL111      0.0019
    115  CG2        2.9490   11.8560   51.1170 C.3   111  VAL111      0.0019
    116  N          2.8390   16.4810   53.1150 N.3   116  LEU116     -0.1245
    117  CA         3.6500   15.8850   52.0660 C.3   116  LEU116      0.1561
    118  C          4.5000   16.9340   51.3690 C.2   116  LEU116      0.2260
    119  O          4.1140   18.0990   51.2780 O.2   116  LEU116     -0.2867
    120  CB         2.7600   15.1900   51.0290 C.3   116  LEU116      0.0270
    121  CG         2.0830   16.0890   49.9890 C.3   116  LEU116      0.0019
    122  CD1        1.3690   15.2430   48.9540 C.3   116  LEU116      0.0001
    123  CD2        1.1160   17.0270   50.6770 C.3   116  LEU116      0.0001
    124  N          6.4110   18.8130   48.2160 N.3   118  VAL118     -0.1245
    125  CA         6.0000   19.1920   46.8710 C.3   118  VAL118      0.1561
    126  C          7.1590   19.9010   46.1910 C.2   118  VAL118      0.2260
    127  O          8.1430   20.2480   46.8440 O.2   118  VAL118     -0.2867
    128  CB         4.7730   20.1310   46.8880 C.3   118  VAL118      0.0252
    129  CG1        3.5640   19.3900   47.4380 C.3   118  VAL118      0.0019
    130  CG2        5.0700   21.3740   47.7260 C.3   118  VAL118      0.0019
    131  N          3.1410   20.6150   51.8460 N.3   125  VAL125     -0.1245
    132  CA         1.7200   20.8630   52.0390 C.3   125  VAL125      0.1561
    133  C          1.2840   20.1500   53.3100 C.2   125  VAL125      0.2260
    134  O          1.4860   18.9460   53.4480 O.2   125  VAL125     -0.2867
    135  CB         0.9030   20.3270   50.8540 C.3   125  VAL125      0.0252
    136  CG1       -0.5420   20.7870   50.9680 C.3   125  VAL125      0.0019
    137  CG2        1.5150   20.8010   49.5500 C.3   125  VAL125      0.0019
    138  N         -4.2880   21.1370   56.2660 N.3   129  PHE129     -0.1227
    139  CA        -4.7580   22.1090   55.2870 C.3   129  PHE129      0.1736
    140  C         -5.6380   21.3960   54.2670 C.2   129  PHE129      0.2595
    141  O         -6.7040   21.8880   53.8970 O.2   129  PHE129     -0.2718
    142  CB        -3.5860   22.7680   54.5630 C.3   129  PHE129      0.0547
    143  CG        -3.9830   23.4890   53.3090 C.ar  129  PHE129     -0.0202
    144  CD1       -4.9840   24.4510   53.3310 C.ar  129  PHE129     -0.0042
    145  CD2       -3.3470   23.2180   52.1070 C.ar  129  PHE129     -0.0042
    146  CE1       -5.3440   25.1370   52.1680 C.ar  129  PHE129     -0.0003
    147  CE2       -3.6990   23.8990   50.9390 C.ar  129  PHE129     -0.0003
    148  CZ        -4.7000   24.8620   50.9730 C.ar  129  PHE129     -0.0000
    149  N         -5.1760   20.2340   53.8130 N.am  130  LEU130     -0.1980
    150  CA        -5.9100   19.4360   52.8400 C.3   130  LEU130      0.1596
    151  C         -7.1850   18.8620   53.4530 C.2   130  LEU130      0.2287
    152  O         -8.1660   18.6280   52.7480 O.2   130  LEU130     -0.2864
    153  CB        -5.0190   18.3050   52.3180 C.3   130  LEU130      0.0297
    154  CG        -4.1630   18.5650   51.0750 C.3   130  LEU130      0.0022
    155  CD1       -3.8310   20.0350   50.9420 C.3   130  LEU130      0.0001
    156  CD2       -2.8970   17.7340   51.1610 C.3   130  LEU130      0.0001
    157  N        -10.8340   12.8550   49.0190 N.3   140  ILE140     -0.1231
    158  CA       -10.0870   12.0570   48.0640 C.3   140  ILE140      0.1692
    159  C         -8.5910   12.0480   48.3440 C.2   140  ILE140      0.2591
    160  O         -7.9160   11.0600   48.0600 O.2   140  ILE140     -0.2718
    161  CB       -10.3290   12.5250   46.6150 C.3   140  ILE140      0.0266
    162  CG1       -9.8720   11.4350   45.6520 C.3   140  ILE140      0.0019
    163  CG2       -9.5660   13.8090   46.3330 C.3   140  ILE140      0.0020
    164  CD1      -10.1150   11.7660   44.2210 C.3   140  ILE140      0.0001
    165  N         -8.0650   13.1290   48.9110 N.am  141  ILE141     -0.1980
    166  CA        -6.6340   13.1740   49.1910 C.3   141  ILE141      0.1595
    167  C         -6.2790   12.4010   50.4760 C.2   141  ILE141      0.2287
    168  O         -5.2770   11.6830   50.5220 O.2   141  ILE141     -0.2864
    169  CB        -6.1040   14.6580   49.2750 C.3   141  ILE141      0.0276
    170  CG1       -6.1470   15.1740   50.7030 C.3   141  ILE141      0.0022
    171  CG2       -6.9320   15.5800   48.4050 C.3   141  ILE141      0.0022
    172  CD1       -4.8930   14.8630   51.4660 C.3   141  ILE141      0.0001
    173  N         -5.1400    8.5830   50.6780 N.3   144  LYS144     -0.1231
    174  CA        -3.7660    8.3500   50.2440 C.3   144  LYS144      0.1693
    175  C         -2.7580    8.6160   51.3700 C.2   144  LYS144      0.2592
    176  O         -1.5970    8.1930   51.2980 O.2   144  LYS144     -0.2718
    177  CB        -3.4370    9.2160   49.0260 C.3   144  LYS144      0.0285
    178  CG        -4.0990    8.7660   47.7260 C.3   144  LYS144      0.0035
    179  CD        -5.5980    9.0120   47.7230 C.3   144  LYS144      0.0206
    180  CE        -6.1860    8.6890   46.3630 C.3   144  LYS144      0.1093
    181  NZ        -7.6600    8.8540   46.3330 N.3   144  LYS144     -0.1314
    182  N         -3.2010    9.3230   52.4060 N.am  145  PHE145     -0.1976
    183  CA        -2.3380    9.5940   53.5450 C.3   145  PHE145      0.1639
    184  C         -2.2680    8.3290   54.4010 C.2   145  PHE145      0.2290
    185  O         -1.1930    7.7610   54.5910 O.2   145  PHE145     -0.2864
    186  CB        -2.8790   10.7710   54.3660 C.3   145  PHE145      0.0560
    187  CG        -2.1970   12.0770   54.0670 C.ar  145  PHE145     -0.0200
    188  CD1       -0.8810   12.2930   54.4600 C.ar  145  PHE145     -0.0042
    189  CD2       -2.8480   13.0740   53.3510 C.ar  145  PHE145     -0.0042
    190  CE1       -0.2230   13.4850   54.1370 C.ar  145  PHE145     -0.0003
    191  CE2       -2.1960   14.2660   53.0250 C.ar  145  PHE145     -0.0003
    192  CZ        -0.8840   14.4690   53.4180 C.ar  145  PHE145     -0.0000
    193  N         -0.0640    5.8700   52.7050 N.3   148  ALA148     -0.1245
    194  CA         1.3500    6.2150   52.7290 C.3   148  ALA148      0.1562
    195  C          1.9540    5.8790   54.0890 C.2   148  ALA148      0.2260
    196  O          2.8010    4.9900   54.2030 O.2   148  ALA148     -0.2867
    197  CB         1.5270    7.6920   52.4260 C.3   148  ALA148      0.0290
    198  N        -10.2470    5.7780   44.1420 N.3   226  HIS226     -0.1241
    199  CA        -9.7770    7.0530   43.6350 C.3   226  HIS226      0.1621
    200  C        -10.4740    7.3530   42.3130 C.2   226  HIS226      0.2264
    201  O        -11.0830    8.4090   42.1430 O.2   226  HIS226     -0.2867
    202  CB        -8.2620    7.0110   43.4290 C.3   226  HIS226      0.0745
    203  CG        -7.6800    8.3150   42.9870 C.ar  226  HIS226      0.0817
    204  ND1       -7.7640    9.4630   43.7460 N.ar  226  HIS226     -0.2268
    205  CD2       -7.0300    8.6610   41.8510 C.ar  226  HIS226      0.1154
    206  CE1       -7.1930   10.4600   43.0970 C.ar  226  HIS226      0.1986
    207  NE2       -6.7390   10.0010   41.9440 N.ar  226  HIS226     -0.2212
    208  N        -12.8200   10.3180   41.4800 N.3   230  MET230     -0.1245
    209  CA       -12.4520   11.2160   40.3980 C.3   230  MET230      0.1570
    210  C        -13.6720   11.4020   39.5000 C.2   230  MET230      0.2261
    211  O        -13.8890   12.4690   38.9340 O.2   230  MET230     -0.2867
    212  CB       -11.2910   10.6300   39.5930 C.3   230  MET230      0.0387
    213  CG        -9.9180   10.8840   40.1950 C.3   230  MET230      0.0595
    214  SD        -9.3390   12.5950   39.9700 S.3   230  MET230     -0.1393
    215  CE        -9.8380   13.2950   41.4780 C.3   230  MET230      0.0692
    216  N         -4.4520   13.0230   31.7410 N.3   246  LEU246     -0.1245
    217  CA        -5.1950   12.3260   32.7840 C.3   246  LEU246      0.1561
    218  C         -6.5310   11.8300   32.2710 C.2   246  LEU246      0.2260
    219  O         -7.0900   10.8690   32.7970 O.2   246  LEU246     -0.2867
    220  CB        -5.4230   13.2410   33.9890 C.3   246  LEU246      0.0270
    221  CG        -4.2460   13.4160   34.9470 C.3   246  LEU246      0.0019
    222  CD1       -3.0300   13.8900   34.1780 C.3   246  LEU246      0.0001
    223  CD2       -4.6240   14.4070   36.0330 C.3   246  LEU246      0.0001
    224  N         -8.4440    8.1910   32.7620 N.3   250  TYR250     -0.1241
    225  CA        -9.7750    8.0510   33.3380 C.3   250  TYR250      0.1605
    226  C        -10.8180    7.9530   32.2290 C.2   250  TYR250      0.2264
    227  O        -11.9030    8.5300   32.3220 O.2   250  TYR250     -0.2867
    228  CB       -10.0810    9.2480   34.2390 C.3   250  TYR250      0.0534
    229  CG        -9.1940    9.3240   35.4600 C.ar  250  TYR250     -0.0201
    230  CD1       -9.1870    8.2970   36.4050 C.ar  250  TYR250     -0.0009
    231  CD2       -8.3540   10.4160   35.6690 C.ar  250  TYR250     -0.0009
    232  CE1       -8.3650    8.3550   37.5280 C.ar  250  TYR250      0.0417
    233  CE2       -7.5280   10.4820   36.7910 C.ar  250  TYR250      0.0417
    234  CZ        -7.5410    9.4490   37.7140 C.ar  250  TYR250      0.1957
    235  OH        -6.7340    9.5100   38.8240 O.3   250  TYR250     -0.2866
@<TRIPOS>BOND
     1   216   217    1
     2   226   227    2
     3   226   225    1
     4   218   217    1
     5   218   219    2
     6   224   225    1
     7   217   220    1
     8   225   228    1
     9   220   221    1
    10   222   221    1
    11   228   229    1
    12   221   223    1
    13   229   231   ar
    14   229   230   ar
    15   231   233   ar
    16    59    58    2
    17   230   232   ar
    18   233   234   ar
    19    71    70    2
    20    58    60   am
    21    58    57    1
    22    70    69    1
    23    83    81   ar
    24    83    84   ar
    25    55    54    2
    26   232   234   ar
    27    81    80   ar
    28   234   235    1
    29    56    57    1
    30    56    53    1
    31    54    53    1
    32    75    76    1
    33    84    82   ar
    34    73    72    1
    35    53    52    1
    36    69    72    1
    37    69    68    1
    38    80    79    1
    39    80    82   ar
    40   211   210    2
    41    72    74    1
    42    64    63    2
    43    33    34   ar
    44    33    31   ar
    45    79    76    1
    46    68    63   am
    47    76    77    1
    48   210   209    1
    49    63    62    1
    50   212   213    1
    51   212   209    1
    52    61    62    1
    53    34    32   ar
    54   214   213    1
    55   214   215    1
    56    45    43    1
    57    31    29   ar
    58    52    48   am
    59    62    65    1
    60   209   208    1
    61    77    78    2
    62    44    43    1
    63    49    48    2
    64    43    42    2
    65    32    30   ar
    66    48    47    1
    67    27    26    2
    68    35    36    1
    69    29    30   ar
    70    29    28    1
    71    26    25    1
    72    38    37    2
    73    65    67    1
    74    65    66    1
    75   205   207   ar
    76   205   203   ar
    77    42    41    1
    78    36    37    1
    79    36    39    1
    80   207   206   ar
    81    37    46   am
    82   201   200    2
    83    28    25    1
    84   200   199    1
    85    46    47    1
    86    47    50    1
    87    25    24    1
    88    41    40    1
    89   203   202    1
    90   203   204   ar
    91   206   204   ar
    92    50    51    1
    93    39    40    1
    94   202   199    1
    95    24    19   am
    96   199   198    1
    97    85    86    1
    98    20    19    2
    99    95    94   ar
   100    95    93   ar
   101    94    92   ar
   102    19    18    1
   103   164   162    1
   104    93    91   ar
   105    92    90   ar
   106    17    18    1
   107   103   101    1
   108   102   101    1
   109    91    90   ar
   110   101   100    1
   111    90    89    1
   112    18    21    1
   113    86    89    1
   114    86    87    1
   115   162   161    1
   116    96    97    1
   117    87    88    2
   118   126   127    2
   119   126   125    1
   120   100    97    1
   121   163   161    1
   122   181   180    1
   123   180   179    1
   124    21    22    1
   125    21    23    1
   126    12    11    2
   127   161   158    1
   128    97    98    1
   129    16    14    1
   130    15    14    1
   131    14    13    1
   132   125   128    1
   133   125   124    1
   134   128   129    1
   135   128   130    1
   136    11    10    1
   137   179   178    1
   138   178   177    1
   139   160   159    2
   140   158   159    1
   141   158   157    1
   142    98   104   am
   143    98    99    2
   144    13    10    1
   145   159   165   am
   146   171   169    1
   147    10     9    1
   148   104   105    1
   149     8     6    1
   150   165   166    1
   151   122   121    1
   152   177   174    1
   153   166   169    1
   154   166   167    1
   155   169   170    1
   156   137   135    1
   157   105   108    1
   158   105   106    1
   159     6     5    1
   160   121   123    1
   161   121   120    1
   162     7     5    1
   163   174   173    1
   164   174   175    1
   165   167   168    2
   166   106   107    2
   167   170   172    1
   168     5     2    1
   169   135   136    1
   170   135   132    1
   171   147   148   ar
   172   147   145   ar
   173   155   154    1
   174   148   146   ar
   175   120   117    1
   176   154   156    1
   177   154   153    1
   178   115   113    1
   179   119   118    2
   180   176   175    2
   181   118   117    1
   182   175   182   am
   183   131   132    1
   184   109   110    1
   185   132   133    1
   186   117   116    1
   187   145   143   ar
   188   146   144   ar
   189     2     1    1
   190     2     3    1
   191   153   150    1
   192   182   183    1
   193   197   194    1
   194   113   110    1
   195   113   114    1
   196   193   194    1
   197   194   195    1
   198   152   151    2
   199   150   151    1
   200   150   149    1
   201   110   111    1
   202   191   189   ar
   203   191   192   ar
   204     3     4    2
   205   143   144   ar
   206   143   142    1
   207   133   134    2
   208   189   187   ar
   209   192   190   ar
   210   183   186    1
   211   183   184    1
   212   149   140   am
   213   141   140    2
   214   187   186    1
   215   187   188   ar
   216   195   196    2
   217   190   188   ar
   218   140   139    1
   219   111   112    2
   220   184   185    2
   221   142   139    1
   222   139   138    1
