@<TRIPOS>MOLECULE
tmp/2j17B00.pdb
 79 75 0 0 0
SMALL
GASTEIGER

@<TRIPOS>ATOM
      1  N         54.6300   36.2860   26.3610 N.3     1  CYS1       -0.1235
      2  CA        54.9800   36.3960   24.9150 C.3     1  CYS1        0.1677
      3  C         55.6600   37.7360   24.5850 C.2     1  CYS1        0.2270
      4  O         55.0720   38.8140   24.7560 O.2     1  CYS1       -0.2867
      5  CB        53.7310   36.2060   24.0450 C.3     1  CYS1        0.0956
      6  SG        54.1020   36.1450   22.2630 S.3     1  CYS1       -0.0801
      7  N         49.5840   45.3970   16.4660 N.3    40  GLU40      -0.1245
      8  CA        51.0080   45.2760   16.1140 C.3    40  GLU40       0.1567
      9  C         51.3190   44.2190   15.0280 C.2    40  GLU40       0.2260
     10  O         52.3850   44.2650   14.4130 O.2    40  GLU40      -0.2867
     11  CB        51.8890   45.0850   17.3680 C.3    40  GLU40       0.0388
     12  CG        51.8750   43.6840   18.0000 C.3    40  GLU40       0.1160
     13  CD        50.7630   43.4800   19.0220 C.2    40  GLU40       0.3649
     14  OE1       49.7740   44.2470   19.0280 O.co2  40  GLU40      -0.2457
     15  OE2       50.8860   42.5400   19.8300 O.co2  40  GLU40      -0.2457
     16  N         45.8610   45.9850   23.8000 N.3    60  HIS60      -0.1241
     17  CA        45.4920   45.0970   24.9110 C.3    60  HIS60       0.1621
     18  C         44.3980   45.6340   25.8500 C.2    60  HIS60       0.2264
     19  O         43.7440   44.8660   26.5760 O.2    60  HIS60      -0.2867
     20  CB        46.7350   44.6980   25.7070 C.3    60  HIS60       0.0745
     21  CG        47.3140   43.3840   25.2780 C.ar   60  HIS60       0.0817
     22  ND1       48.5360   43.2790   24.6350 N.ar   60  HIS60      -0.2268
     23  CD2       46.8260   42.1160   25.3830 C.ar   60  HIS60       0.1154
     24  CE1       48.7780   42.0020   24.3700 C.ar   60  HIS60       0.1986
     25  NE2       47.7550   41.2760   24.8110 N.ar   60  HIS60      -0.2212
     26  N         46.1460   36.6290   16.2720 N.3    89  SER89      -0.1202
     27  CA        46.5960   37.8640   16.8900 C.3    89  SER89       0.2020
     28  C         48.1020   37.9220   16.6870 C.2    89  SER89       0.2619
     29  O         48.6100   37.4350   15.6650 O.2    89  SER89      -0.2717
     30  CB        46.2360   37.8930   18.3630 C.3    89  SER89       0.2103
     31  OG        46.7170   36.7240   18.9810 O.3    89  SER89      -0.2182
     32  N         48.8190   38.5130   17.6400 N.am   90  GLN90      -0.1965
     33  CA        50.2770   38.5410   17.5620 C.3    90  GLN90       0.1733
     34  C         50.8590   37.2130   18.0540 C.2    90  GLN90       0.2616
     35  O         51.7550   36.6600   17.4200 O.2    90  GLN90      -0.2715
     36  CB        50.8510   39.7340   18.3340 C.3    90  GLN90       0.0408
     37  CG        52.3760   39.8770   18.2900 C.3    90  GLN90       0.0908
     38  CD        52.9460   40.0080   16.8790 C.2    90  GLN90       0.2608
     39  OE1       52.7420   41.0150   16.1880 O.2    90  GLN90      -0.2717
     40  NE2       53.6830   38.9890   16.4540 N.am   90  GLN90      -0.0878
     41  N         50.3150   36.6950   19.1550 N.am   91  CYS91      -0.1968
     42  CA        50.8640   35.5190   19.8240 C.3    91  CYS91       0.1712
     43  C         49.8760   34.3840   19.8610 C.2    91  CYS91       0.2296
     44  O         50.2290   33.2790   20.2670 O.2    91  CYS91      -0.2864
     45  CB        51.2770   35.8620   21.2560 C.3    91  CYS91       0.0983
     46  SG        52.5650   37.1150   21.3510 S.3    91  CYS91      -0.0798
     47  N         47.1930   34.1250   21.6940 N.3    93  LEU93      -0.1231
     48  CA        46.9710   33.8080   23.0940 C.3    93  LEU93       0.1693
     49  C         45.7750   34.5070   23.7030 C.2    93  LEU93       0.2593
     50  O         44.9980   33.8850   24.4240 O.2    93  LEU93      -0.2718
     51  CB        48.2230   34.1500   23.9020 C.3    93  LEU93       0.0284
     52  CG        49.1510   33.0130   24.3450 C.3    93  LEU93       0.0019
     53  CD1       48.9620   31.6970   23.5560 C.3    93  LEU93       0.0001
     54  CD2       50.6060   33.4790   24.3300 C.3    93  LEU93       0.0001
     55  N         45.6370   35.7980   23.4110 N.am   94  SER94      -0.1938
     56  CA        44.6970   36.6490   24.1260 C.3    94  SER94       0.2055
     57  C         43.6560   37.3460   23.2370 C.2    94  SER94       0.2642
     58  O         42.4710   36.9980   23.2930 O.2    94  SER94      -0.2714
     59  CB        45.4640   37.6580   24.9790 C.3    94  SER94       0.2130
     60  OG        44.5870   38.5220   25.6680 O.3    94  SER94      -0.2179
     61  N         44.0820   38.3200   22.4310 N.am   95  ARG95      -0.1977
     62  CA        43.1510   39.0610   21.5530 C.3    95  ARG95       0.1597
     63  C         42.3730   38.1780   20.5640 C.2    95  ARG95       0.2287
     64  O         41.2040   38.4420   20.2560 O.2    95  ARG95      -0.2864
     65  CB        43.8900   40.1470   20.7810 C.3    95  ARG95       0.0334
     66  CG        43.9260   41.4770   21.4760 C.3    95  ARG95       0.0492
     67  CD        45.0700   42.3300   20.9570 C.3    95  ARG95       0.2205
     68  NE        46.3390   41.6140   20.9860 N.pl3  95  ARG95      -0.0865
     69  CZ        47.5020   42.1150   20.5750 C.cat  95  ARG95       0.5346
     70  NH1       48.6030   41.3750   20.6360 N.pl3  95  ARG95       0.1354
     71  NH2       47.5700   43.3530   20.1030 N.pl3  95  ARG95       0.1354
     72  N         45.3550   32.3410   27.0190 N.3   127  ASN127     -0.1240
     73  CA        45.3530   33.0450   28.2800 C.3   127  ASN127      0.1653
     74  C         44.8610   34.4780   28.0880 C.2   127  ASN127      0.2266
     75  O         45.6600   35.4170   28.0790 O.2   127  ASN127     -0.2867
     76  CB        46.7590   33.0070   28.8890 C.3   127  ASN127      0.1155
     77  CG        46.7720   33.3770   30.3510 C.2   127  ASN127      0.2627
     78  OD1       46.0080   32.8420   31.1650 O.2   127  ASN127     -0.2716
     79  ND2       47.6530   34.2970   30.6990 N.am  127  ASN127     -0.0877
@<TRIPOS>BOND
     1    10     9    2
     2     9     8    1
     3    29    28    2
     4     8     7    1
     5     8    11    1
     6    39    38    2
     7    26    27    1
     8    40    38   am
     9    28    27    1
    10    28    32   am
    11    38    37    1
    12    27    30    1
    13    11    12    1
    14    35    34    2
    15    33    32    1
    16    33    34    1
    17    33    36    1
    18    12    13    1
    19    34    41   am
    20    37    36    1
    21    30    31    1
    22    13    14   ar
    23    13    15   ar
    24    41    42    1
    25    42    43    1
    26    42    45    1
    27    43    44    2
    28    71    69    1
    29    64    63    2
    30    63    62    1
    31    69    70    1
    32    69    68    2
    33    65    66    1
    34    65    62    1
    35    67    68    1
    36    67    66    1
    37    45    46    1
    38    46     6    1
    39    62    61    1
    40    47    48    1
    41     6     5    1
    42    61    57   am
    43    48    49    1
    44    48    51    1
    45    57    58    2
    46    57    56    1
    47    55    49   am
    48    55    56    1
    49    53    52    1
    50    49    50    2
    51    16    17    1
    52    51    52    1
    53     5     2    1
    54    56    59    1
    55    54    52    1
    56    24    22   ar
    57    24    25   ar
    58     3     4    2
    59     3     2    1
    60    22    21   ar
    61    25    23   ar
    62    17    20    1
    63    17    18    1
    64     2     1    1
    65    59    60    1
    66    21    23   ar
    67    21    20    1
    68    18    19    2
    69    72    73    1
    70    75    74    2
    71    74    73    1
    72    73    76    1
    73    76    77    1
    74    77    79   am
    75    77    78    2
