@<TRIPOS>MOLECULE
tmp/2j1aA00.pdb
 94 90 0 0 0
SMALL
GASTEIGER

@<TRIPOS>ATOM
      1  N        -24.6360   26.5890   20.4370 N.3    17  GLU17      -0.1245
      2  CA       -23.4950   26.7960   21.3190 C.3    17  GLU17       0.1567
      3  C        -22.4730   27.5450   20.4740 C.2    17  GLU17       0.2260
      4  O        -22.6540   27.6630   19.2610 O.2    17  GLU17      -0.2867
      5  CB       -22.9110   25.4700   21.8530 C.3    17  GLU17       0.0388
      6  CG       -22.3220   24.5240   20.7930 C.3    17  GLU17       0.1160
      7  CD       -22.0130   23.1160   21.3530 C.2    17  GLU17       0.3649
      8  OE1      -21.5910   23.0260   22.5470 O.co2  17  GLU17      -0.2457
      9  OE2      -22.2600   22.1220   20.6170 O.co2  17  GLU17      -0.2457
     10  N        -17.5020   22.4690   16.2350 N.3    34  HIS34      -0.1241
     11  CA       -18.5420   21.4610   15.9890 C.3    34  HIS34       0.1621
     12  C        -19.1480   21.8260   14.6360 C.2    34  HIS34       0.2264
     13  O        -19.3960   23.0160   14.3730 O.2    34  HIS34      -0.2867
     14  CB       -19.6570   21.5710   17.0790 C.3    34  HIS34       0.0745
     15  CG       -20.5050   20.3320   17.2330 C.ar   34  HIS34       0.0817
     16  ND1      -21.1170   19.7120   16.1660 N.ar   34  HIS34      -0.2268
     17  CD2      -20.8450   19.6090   18.3330 C.ar   34  HIS34       0.1154
     18  CE1      -21.7600   18.6330   16.5940 C.ar   34  HIS34       0.1986
     19  NE2      -21.6360   18.5670   17.9090 N.ar   34  HIS34      -0.2212
     20  N        -24.9930   21.6180   14.0860 N.3    37  TRP37      -0.1241
     21  CA       -25.9960   20.6530   14.5250 C.3    37  TRP37       0.1605
     22  C        -27.3790   21.2790   14.7800 C.2    37  TRP37       0.2264
     23  O        -28.3830   20.5700   14.7030 O.2    37  TRP37      -0.2867
     24  CB       -25.5130   19.8490   15.7570 C.3    37  TRP37       0.0550
     25  CG       -25.2270   20.6990   17.0050 C.ar   37  TRP37       0.0003
     26  CD1      -23.9940   21.1380   17.4710 C.ar   37  TRP37       0.0946
     27  CD2      -26.2020   21.1810   17.9480 C.ar   37  TRP37       0.0152
     28  NE1      -24.1580   21.8690   18.6390 N.ar   37  TRP37      -0.2442
     29  CE2      -25.5020   21.9280   18.9410 C.ar   37  TRP37       0.0810
     30  CE3      -27.6090   21.0850   18.0260 C.ar   37  TRP37       0.0012
     31  CZ2      -26.1650   22.5570   20.0240 C.ar   37  TRP37       0.0191
     32  CZ3      -28.2770   21.7140   19.1150 C.ar   37  TRP37       0.0001
     33  CH2      -27.5480   22.4370   20.0910 C.ar   37  TRP37       0.0015
     34  N        -12.8270   16.3370   21.0770 N.3    66  ARG66      -0.1245
     35  CA       -13.4790   17.0260   22.1980 C.3    66  ARG66       0.1563
     36  C        -13.4700   16.1040   23.4170 C.2    66  ARG66       0.2260
     37  O        -13.5730   14.8770   23.2910 O.2    66  ARG66      -0.2867
     38  CB       -14.8940   17.5730   21.8930 C.3    66  ARG66       0.0307
     39  CG       -15.9460   16.5900   21.9430 C.3    66  ARG66       0.0489
     40  CD       -17.2970   17.2250   21.5130 C.3    66  ARG66       0.2205
     41  NE       -18.0640   17.8430   22.5870 N.pl3  66  ARG66      -0.0865
     42  CZ       -19.3490   18.2120   22.4390 C.cat  66  ARG66       0.5346
     43  NH1      -19.9380   18.0580   21.2410 N.pl3  66  ARG66       0.1354
     44  NH2      -20.0320   18.7690   23.4340 N.pl3  66  ARG66       0.1354
     45  N        -15.3910   16.2870   26.3280 N.3    68  ASP68      -0.1225
     46  CA       -16.6160   16.1820   27.1600 C.3    68  ASP68       0.1805
     47  C        -17.7060   15.2630   26.5780 C.2    68  ASP68       0.2598
     48  O        -18.7150   14.9960   27.2580 O.2    68  ASP68      -0.2718
     49  CB       -17.2020   17.5740   27.3840 C.3    68  ASP68       0.1424
     50  CG       -17.7520   18.1650   26.0970 C.2    68  ASP68       0.3668
     51  OD1      -16.9690   18.3200   25.1230 O.co2  68  ASP68      -0.2456
     52  OD2      -18.9780   18.4280   26.0410 O.co2  68  ASP68      -0.2456
     53  N        -17.5580   14.8290   25.3200 N.am   69  SER69      -0.1952
     54  CA       -18.6030   14.0370   24.6310 C.3    69  SER69       0.1924
     55  C        -17.9810   13.3240   23.4490 C.2    69  SER69       0.2314
     56  O        -16.9690   13.8110   22.9040 O.2    69  SER69      -0.2863
     57  CB       -19.7190   14.9720   24.1220 C.3    69  SER69       0.2116
     58  OG       -20.5510   14.3620   23.1370 O.3    69  SER69      -0.2180
     59  N        -19.6670   13.0070   20.6400 N.3    71  ASN71      -0.1240
     60  CA       -20.3960   13.5220   19.4840 C.3    71  ASN71       0.1653
     61  C        -19.4170   14.1280   18.5100 C.2    71  ASN71       0.2266
     62  O        -18.7210   15.0730   18.8480 O.2    71  ASN71      -0.2867
     63  CB       -21.3770   14.6280   19.9050 C.3    71  ASN71       0.1155
     64  CG       -22.6790   14.0720   20.4910 C.2    71  ASN71       0.2627
     65  OD1      -23.5610   14.8200   20.9380 O.2    71  ASN71      -0.2716
     66  ND2      -22.7940   12.7530   20.5010 N.am   71  ASN71      -0.0877
     67  N        -22.6400   10.0250   20.9950 N.3   125  ASP125     -0.1225
     68  CA       -23.1330    9.4350   22.2340 C.3   125  ASP125      0.1805
     69  C        -24.3530    8.5560   21.9780 C.2   125  ASP125      0.2597
     70  O        -24.5430    7.5350   22.6380 O.2   125  ASP125     -0.2718
     71  CB       -23.4760   10.5280   23.2490 C.3   125  ASP125      0.1424
     72  CG       -22.2770   11.3810   23.6130 C.2   125  ASP125      0.3668
     73  OD1      -21.1550   10.8360   23.6790 O.co2 125  ASP125     -0.2456
     74  OD2      -22.3590   12.6050   23.8500 O.co2 125  ASP125     -0.2456
     75  N        -25.1770    8.9610   21.0170 N.am  126  GLN126     -0.1979
     76  CA       -26.4860    8.3510   20.8220 C.3   126  GLN126      0.1601
     77  C        -26.3680    7.0070   20.1110 C.2   126  GLN126      0.2287
     78  O        -25.6220    6.8710   19.1410 O.2   126  GLN126     -0.2864
     79  CB       -27.4020    9.2860   20.0300 C.3   126  GLN126      0.0394
     80  CG       -26.6830   10.1100   18.9740 C.3   126  GLN126      0.0908
     81  CD       -27.6360   10.9240   18.1220 C.2   126  GLN126      0.2608
     82  OE1      -28.2850   10.3880   17.2230 O.2   126  GLN126     -0.2717
     83  NE2      -27.7240   12.2190   18.4000 N.am  126  GLN126     -0.0878
     84  N        -22.1960   14.1470   12.8590 N.3   131  PHE131     -0.1241
     85  CA       -21.4850   15.2610   13.4440 C.3   131  PHE131      0.1605
     86  C        -19.9770   15.1520   13.2120 C.2   131  PHE131      0.2264
     87  O        -19.4330   14.0490   12.9780 O.2   131  PHE131     -0.2867
     88  CB       -21.6500   15.2380   14.9710 C.3   131  PHE131      0.0534
     89  CG       -23.0710   15.1750   15.4390 C.ar  131  PHE131     -0.0203
     90  CD1      -23.4630   14.1880   16.3610 C.ar  131  PHE131     -0.0042
     91  CD2      -24.0140   16.1050   14.9690 C.ar  131  PHE131     -0.0042
     92  CE1      -24.8000   14.1330   16.8140 C.ar  131  PHE131     -0.0003
     93  CE2      -25.3420   16.0570   15.3990 C.ar  131  PHE131     -0.0003
     94  CZ       -25.7360   15.0750   16.3360 C.ar  131  PHE131     -0.0000
@<TRIPOS>BOND
     1    84    85    1
     2    87    86    2
     3    86    85    1
     4    85    88    1
     5    20    21    1
     6    13    12    2
     7    21    22    1
     8    21    24    1
     9    12    11    1
    10    23    22    2
    11    91    93   ar
    12    91    89   ar
    13    88    89    1
    14    93    94   ar
    15    89    90   ar
    16    24    25    1
    17    11    10    1
    18    11    14    1
    19    16    18   ar
    20    16    15   ar
    21    94    92   ar
    22    90    92   ar
    23    18    19   ar
    24    25    26   ar
    25    25    27   ar
    26    14    15    1
    27    82    81    2
    28    15    17   ar
    29    26    28   ar
    30    19    17   ar
    31    27    30   ar
    32    27    29   ar
    33    30    32   ar
    34    81    83   am
    35    81    80    1
    36    61    62    2
    37    61    60    1
    38    28    29   ar
    39    29    31   ar
    40    80    79    1
    41    32    33   ar
    42    78    77    2
    43     4     3    2
    44    60    63    1
    45    60    59    1
    46    63    64    1
    47    31    33   ar
    48    79    76    1
    49    77    76    1
    50     1     2    1
    51     3     2    1
    52    64    66   am
    53    64    65    2
    54     9     7   ar
    55     6     7    1
    56     6     5    1
    57    76    75    1
    58    67    68    1
    59    75    69   am
    60    34    35    1
    61    43    42    1
    62     2     5    1
    63     7     8   ar
    64    40    39    1
    65    40    41    1
    66    38    39    1
    67    38    35    1
    68    69    68    1
    69    69    70    2
    70    35    36    1
    71    68    71    1
    72    42    41    2
    73    42    44    1
    74    56    55    2
    75    58    57    1
    76    71    72    1
    77    37    36    2
    78    55    54    1
    79    72    73   ar
    80    72    74   ar
    81    57    54    1
    82    54    53    1
    83    51    50   ar
    84    53    47   am
    85    52    50   ar
    86    50    49    1
    87    45    46    1
    88    47    46    1
    89    47    48    2
    90    46    49    1
