@<TRIPOS>MOLECULE
tmp/2j1eA00.pdb
 91 87 0 0 0
SMALL
GASTEIGER

@<TRIPOS>ATOM
      1  N         40.3280   27.2370   18.1210 N.3    16  GLU16      -0.1245
      2  CA        41.1670   26.8110   19.2710 C.3    16  GLU16       0.1567
      3  C         42.5860   26.7770   18.6820 C.2    16  GLU16       0.2260
      4  O         42.7740   27.0180   17.4810 O.2    16  GLU16      -0.2867
      5  CB        40.7370   25.4170   19.7940 C.3    16  GLU16       0.0388
      6  CG        41.0220   24.2910   18.7730 C.3    16  GLU16       0.1160
      7  CD        40.2930   22.9980   19.0980 C.2    16  GLU16       0.3649
      8  OE1       40.4070   22.5130   20.2420 O.co2  16  GLU16      -0.2457
      9  OE2       39.5880   22.4760   18.2170 O.co2  16  GLU16      -0.2457
     10  N         44.5010   19.6930   15.1430 N.3    33  HIS33      -0.1241
     11  CA        43.1820   19.4750   14.5920 C.3    33  HIS33       0.1621
     12  C         43.2300   19.9900   13.1490 C.2    33  HIS33       0.2264
     13  O         43.7650   21.0980   12.8870 O.2    33  HIS33      -0.2867
     14  CB        42.1460   20.2660   15.3840 C.3    33  HIS33       0.0745
     15  CG        40.7480   19.7110   15.3130 C.ar   33  HIS33       0.0817
     16  ND1       40.0710   19.5300   14.1220 N.ar   33  HIS33      -0.2268
     17  CD2       39.8740   19.3610   16.3000 C.ar   33  HIS33       0.1154
     18  CE1       38.8660   19.0480   14.3720 C.ar   33  HIS33       0.1986
     19  NE2       38.7220   18.9320   15.6870 N.ar   33  HIS33      -0.2212
     20  N         38.4580   23.2510   11.3470 N.3    36  TRP36      -0.1241
     21  CA        37.0260   23.0540   11.4490 C.3    36  TRP36       0.1605
     22  C         36.2370   24.3700   11.4850 C.2    36  TRP36       0.2264
     23  O         35.0280   24.3820   11.2660 O.2    36  TRP36      -0.2867
     24  CB        36.6660   22.2090   12.6490 C.3    36  TRP36       0.0550
     25  CG        37.1860   22.7000   13.9650 C.ar   36  TRP36       0.0003
     26  CD1       38.3910   22.3390   14.5920 C.ar   36  TRP36       0.0946
     27  CD2       36.5240   23.5980   14.8650 C.ar   36  TRP36       0.0152
     28  NE1       38.4890   22.9790   15.8000 N.ar   36  TRP36      -0.2442
     29  CE2       37.3630   23.7540   15.9980 C.ar   36  TRP36       0.0810
     30  CE3       35.2920   24.2860   14.8350 C.ar   36  TRP36       0.0012
     31  CZ2       37.0120   24.5640   17.0880 C.ar   36  TRP36       0.0191
     32  CZ3       34.9430   25.1120   15.9280 C.ar   36  TRP36       0.0001
     33  CH2       35.8180   25.2470   17.0270 C.ar   36  TRP36       0.0015
     34  N         44.0370   12.3080   19.8720 N.3    65  ARG65      -0.1245
     35  CA        43.5150   13.3440   20.7690 C.3    65  ARG65       0.1563
     36  C         42.9170   12.6830   22.0150 C.2    65  ARG65       0.2260
     37  O         42.1530   11.6930   21.9140 O.2    65  ARG65      -0.2867
     38  CB        42.4310   14.1170   20.0220 C.3    65  ARG65       0.0307
     39  CG        41.9600   15.3170   20.7040 C.3    65  ARG65       0.0489
     40  CD        40.8170   16.0140   19.9940 C.3    65  ARG65       0.2205
     41  NE        40.2030   17.0280   20.8520 N.pl3  65  ARG65      -0.0865
     42  CZ        39.3820   17.9650   20.4450 C.cat  65  ARG65       0.5346
     43  NH1       39.0310   18.0040   19.1650 N.pl3  65  ARG65       0.1354
     44  NH2       38.9060   18.8600   21.3200 N.pl3  65  ARG65       0.1354
     45  N         38.6290   14.2120   23.2750 N.3    68  SER68      -0.1217
     46  CA        37.4850   14.1570   22.3660 C.3    68  SER68       0.1889
     47  C         37.8070   13.1620   21.2730 C.2    68  SER68       0.2288
     48  O         38.9730   12.9860   20.9190 O.2    68  SER68      -0.2866
     49  CB        37.2350   15.5480   21.7470 C.3    68  SER68       0.2089
     50  OG        36.4120   15.4960   20.6300 O.3    68  SER68      -0.2183
     51  N         36.6200   13.5580   18.1970 N.3    70  ASN70      -0.1240
     52  CA        36.4880   14.2610   16.9220 C.3    70  ASN70       0.1653
     53  C         37.8410   14.1830   16.1560 C.2    70  ASN70       0.2266
     54  O         38.8850   14.5860   16.6980 O.2    70  ASN70      -0.2867
     55  CB        36.0920   15.7140   17.1770 C.3    70  ASN70       0.1155
     56  CG        34.5990   15.9090   17.4640 C.2    70  ASN70       0.2627
     57  OD1       34.1960   16.9940   17.8720 O.2    70  ASN70      -0.2716
     58  ND2       33.7890   14.9120   17.2000 N.am   70  ASN70      -0.0877
     59  N         32.0710   12.6870   17.6430 N.3   124  ASP124     -0.1225
     60  CA        30.9880   12.4980   18.5670 C.3   124  ASP124      0.1805
     61  C         29.7100   13.1350   18.0210 C.2   124  ASP124      0.2598
     62  O         28.6560   13.0400   18.6560 O.2   124  ASP124     -0.2718
     63  CB        31.3300   12.9840   19.9860 C.3   124  ASP124      0.1424
     64  CG        31.6120   14.4560   20.0470 C.2   124  ASP124      0.3668
     65  OD1       32.2990   14.8330   21.0170 O.co2 124  ASP124     -0.2456
     66  OD2       31.1710   15.3070   19.2140 O.co2 124  ASP124     -0.2456
     67  N         29.8290   13.7380   16.8340 N.am  125  GLN125     -0.1965
     68  CA        28.7200   14.3240   16.0860 C.3   125  GLN125      0.1733
     69  C         28.1320   13.2970   15.1170 C.2   125  GLN125      0.2616
     70  O         28.8610   12.5410   14.4260 O.2   125  GLN125     -0.2715
     71  CB        29.2070   15.5610   15.3510 C.3   125  GLN125      0.0408
     72  CG        29.9020   16.5860   16.3060 C.3   125  GLN125      0.0908
     73  CD        30.5800   17.7030   15.5670 C.2   125  GLN125      0.2608
     74  OE1       30.4570   17.7820   14.3250 O.2   125  GLN125     -0.2717
     75  NE2       31.2990   18.5830   16.2970 N.am  125  GLN125     -0.0878
     76  N         26.8010   13.2680   15.0670 N.am  126  ALA126     -0.1977
     77  CA        26.0580   12.2780   14.2600 C.3   126  ALA126      0.1597
     78  C         26.4390   12.2780   12.7550 C.2   126  ALA126      0.2287
     79  O         26.5240   11.2120   12.0950 O.2   126  ALA126     -0.2864
     80  CB        24.5100   12.4590   14.4690 C.3   126  ALA126      0.0319
     81  N         36.7660   15.4950   10.3220 N.3   132  PHE132     -0.1241
     82  CA        37.8490   15.9690   11.1820 C.3   132  PHE132      0.1605
     83  C         39.0650   15.0740   11.1820 C.2   132  PHE132      0.2264
     84  O         38.9590   13.8850   10.8940 O.2   132  PHE132     -0.2867
     85  CB        37.3490   16.1670   12.6290 C.3   132  PHE132      0.0534
     86  CG        36.0350   16.9080   12.7100 C.ar  132  PHE132     -0.0203
     87  CD1       34.9040   16.3100   13.3320 C.ar  132  PHE132     -0.0042
     88  CD2       35.9100   18.2050   12.1610 C.ar  132  PHE132     -0.0042
     89  CE1       33.6780   17.0020   13.4060 C.ar  132  PHE132     -0.0003
     90  CE2       34.6720   18.9030   12.2220 C.ar  132  PHE132     -0.0003
     91  CZ        33.5670   18.3020   12.8500 C.ar  132  PHE132     -0.0000
@<TRIPOS>BOND
     1    81    82    1
     2    84    83    2
     3    83    82    1
     4    82    85    1
     5    23    22    2
     6    20    21    1
     7    21    22    1
     8    21    24    1
     9    79    78    2
    10    88    90   ar
    11    88    86   ar
    12    90    91   ar
    13    85    86    1
    14    24    25    1
    15    86    87   ar
    16    78    77    1
    17    91    89   ar
    18    13    12    2
    19    12    11    1
    20    87    89   ar
    21    25    26   ar
    22    25    27   ar
    23    16    18   ar
    24    16    15   ar
    25    77    80    1
    26    77    76    1
    27    74    73    2
    28    18    19   ar
    29    70    69    2
    30    11    10    1
    31    11    14    1
    32    26    28   ar
    33    30    27   ar
    34    30    32   ar
    35    27    29   ar
    36    76    69   am
    37    69    68    1
    38    15    14    1
    39    15    17   ar
    40    71    68    1
    41    71    72    1
    42    73    75   am
    43    73    72    1
    44    19    17   ar
    45    28    29   ar
    46    32    33   ar
    47    29    31   ar
    48    68    67    1
    49    53    54    2
    50    53    52    1
    51    67    61   am
    52    52    55    1
    53    52    51    1
    54    33    31   ar
    55    55    56    1
    56    58    56   am
    57    56    57    2
    58     4     3    2
    59    59    60    1
    60    61    60    1
    61    61    62    2
    62     1     2    1
    63     9     7   ar
    64    60    63    1
    65     3     2    1
    66     6     7    1
    67     6     5    1
    68     7     8   ar
    69    43    42    1
    70    66    64   ar
    71     2     5    1
    72    34    35    1
    73    63    64    1
    74    40    39    1
    75    40    41    1
    76    38    39    1
    77    38    35    1
    78    64    65   ar
    79    42    41    2
    80    42    44    1
    81    50    49    1
    82    35    36    1
    83    48    47    2
    84    47    46    1
    85    49    46    1
    86    37    36    2
    87    46    45    1
