@<TRIPOS>MOLECULE
tmp/2j1gE00.pdb
 109 104 0 0 0
SMALL
GASTEIGER

@<TRIPOS>ATOM
      1  N         53.6130   82.1160   17.7640 N.3    52  ARG52      -0.1245
      2  CA        52.6690   82.4450   18.8320 C.3    52  ARG52       0.1563
      3  C         53.0020   81.7490   20.1530 C.2    52  ARG52       0.2260
      4  O         53.2720   80.5290   20.1890 O.2    52  ARG52      -0.2867
      5  CB        51.2500   82.1210   18.4090 C.3    52  ARG52       0.0307
      6  CG        50.2280   82.7340   19.3390 C.3    52  ARG52       0.0489
      7  CD        48.8950   82.8770   18.6520 C.3    52  ARG52       0.2205
      8  NE        48.0470   81.7950   19.0940 N.pl3  52  ARG52      -0.0865
      9  CZ        47.1110   81.9160   20.0220 C.cat  52  ARG52       0.5346
     10  NH1       46.8590   83.0940   20.5820 N.pl3  52  ARG52       0.1354
     11  NH2       46.4060   80.8580   20.3650 N.pl3  52  ARG52       0.1354
     12  N         51.4560   81.8070   24.2530 N.3    54  VAL54      -0.1245
     13  CA        50.2600   82.2480   24.9600 C.3    54  VAL54       0.1561
     14  C         50.1080   81.6110   26.3530 C.2    54  VAL54       0.2260
     15  O         49.4010   82.1540   27.2030 O.2    54  VAL54      -0.2867
     16  CB        48.9990   82.0120   24.0800 C.3    54  VAL54       0.0252
     17  CG1       48.6280   80.5280   24.0450 C.3    54  VAL54       0.0019
     18  CG2       47.8120   82.8830   24.5340 C.3    54  VAL54       0.0019
     19  N         52.0090   91.0530   24.9970 N.3   101  VAL101     -0.1231
     20  CA        51.1050   91.3960   26.1100 C.3   101  VAL101      0.1692
     21  C         51.7120   90.8660   27.3930 C.2   101  VAL101      0.2592
     22  O         52.1080   89.7040   27.4520 O.2   101  VAL101     -0.2718
     23  CB        49.7290   90.7420   25.9230 C.3   101  VAL101      0.0266
     24  CG1       48.7370   91.2120   27.0100 C.3   101  VAL101      0.0020
     25  CG2       49.1910   91.0570   24.5220 C.3   101  VAL101      0.0020
     26  N         51.7790   91.7040   28.4250 N.am  102  ASP102     -0.1960
     27  CA        52.3330   91.2580   29.6860 C.3   102  ASP102      0.1840
     28  C         51.2510   90.6930   30.5950 C.2   102  ASP102      0.2622
     29  O         50.0840   90.6140   30.2080 O.2   102  ASP102     -0.2715
     30  CB        53.1780   92.3450   30.3660 C.3   102  ASP102      0.1450
     31  CG        52.3580   93.5370   30.8550 C.2   102  ASP102      0.3671
     32  OD1       51.1130   93.4490   31.0120 O.co2 102  ASP102     -0.2456
     33  OD2       52.9910   94.5860   31.0890 O.co2 102  ASP102     -0.2456
     34  N         51.6410   90.2770   31.7930 N.am  103  PHE103     -0.1960
     35  CA        50.6960   89.6700   32.7170 C.3   103  PHE103      0.1771
     36  C         49.8390   90.7000   33.4370 C.2   103  PHE103      0.2619
     37  O         48.9380   90.3410   34.2060 O.2   103  PHE103     -0.2715
     38  CB        51.4190   88.7550   33.7030 C.3   103  PHE103      0.0574
     39  CG        51.8430   87.4550   33.0950 C.ar  103  PHE103     -0.0200
     40  CD1       53.0750   87.3440   32.4470 C.ar  103  PHE103     -0.0042
     41  CD2       51.0070   86.3450   33.1530 C.ar  103  PHE103     -0.0042
     42  CE1       53.4720   86.1460   31.8640 C.ar  103  PHE103     -0.0003
     43  CE2       51.3980   85.1290   32.5800 C.ar  103  PHE103     -0.0003
     44  CZ        52.6290   85.0340   31.9240 C.ar  103  PHE103     -0.0000
     45  N         50.1050   91.9750   33.1740 N.am  104  GLU104     -0.1963
     46  CA        49.2930   93.0570   33.7460 C.3   104  GLU104      0.1733
     47  C         48.3160   93.6400   32.7290 C.2   104  GLU104      0.2616
     48  O         47.6950   94.6750   32.9770 O.2   104  GLU104     -0.2715
     49  CB        50.1790   94.1740   34.2810 C.3   104  GLU104      0.0429
     50  CG        51.0580   93.7770   35.4430 C.3   104  GLU104      0.1163
     51  CD        51.7260   94.9890   36.0860 C.2   104  GLU104      0.3649
     52  OE1       51.5350   95.1910   37.3090 O.co2 104  GLU104     -0.2457
     53  OE2       52.4300   95.7460   35.3720 O.co2 104  GLU104     -0.2457
     54  N         48.1980   92.9720   31.5880 N.am  105  ASP105     -0.1971
     55  CA        47.2670   93.3490   30.5270 C.3   105  ASP105      0.1709
     56  C         47.7020   94.5820   29.7320 C.2   105  ASP105      0.2293
     57  O         46.8860   95.2330   29.0900 O.2   105  ASP105     -0.2864
     58  CB        45.8450   93.5250   31.0740 C.3   105  ASP105      0.1436
     59  CG        44.7860   93.1250   30.0670 C.2   105  ASP105      0.3671
     60  OD1       45.1050   92.3460   29.1530 O.co2 105  ASP105     -0.2456
     61  OD2       43.6360   93.5780   30.1960 O.co2 105  ASP105     -0.2456
     62  N         49.4490   96.0820   26.5560 N.3   107  TYR107     -0.1241
     63  CA        49.7520   95.7060   25.1810 C.3   107  TYR107      0.1605
     64  C         50.8530   96.5850   24.6060 C.2   107  TYR107      0.2264
     65  O         50.7870   97.8140   24.6920 O.2   107  TYR107     -0.2867
     66  CB        48.4980   95.8370   24.3160 C.3   107  TYR107      0.0534
     67  CG        47.4940   94.7370   24.5510 C.ar  107  TYR107     -0.0201
     68  CD1       47.2800   93.7650   23.5860 C.ar  107  TYR107     -0.0009
     69  CD2       46.7720   94.6570   25.7440 C.ar  107  TYR107     -0.0009
     70  CE1       46.3700   92.7460   23.7910 C.ar  107  TYR107      0.0417
     71  CE2       45.8600   93.6310   25.9650 C.ar  107  TYR107      0.0417
     72  CZ        45.6690   92.6780   24.9740 C.ar  107  TYR107      0.1957
     73  OH        44.7740   91.6470   25.1570 O.3   107  TYR107     -0.2866
     74  N         56.8790   83.2410   32.5940 N.3   186  ARG186     -0.1245
     75  CA        55.6990   83.7910   33.2600 C.3   186  ARG186      0.1563
     76  C         55.9700   85.0500   34.0810 C.2   186  ARG186      0.2260
     77  O         55.8050   85.0340   35.2910 O.2   186  ARG186     -0.2867
     78  CB        55.0330   82.7240   34.1500 C.3   186  ARG186      0.0307
     79  CG        55.0300   81.3340   33.5500 C.3   186  ARG186      0.0489
     80  CD        54.1460   80.3600   34.3100 C.3   186  ARG186      0.2205
     81  NE        52.8620   80.2130   33.6280 N.pl3 186  ARG186     -0.0865
     82  CZ        52.6050   79.3010   32.6880 C.cat 186  ARG186      0.5346
     83  NH1       53.5350   78.4270   32.3280 N.pl3 186  ARG186      0.1354
     84  NH2       51.4070   79.2550   32.1140 N.pl3 186  ARG186      0.1354
     85  N         53.3660   87.3370   28.5940 N.3   209  LYS209     -0.1231
     86  CA        52.3100   86.3340   28.5890 C.3   209  LYS209      0.1693
     87  C         52.0150   85.8980   27.1700 C.2   209  LYS209      0.2591
     88  O         51.8280   84.7060   26.9080 O.2   209  LYS209     -0.2718
     89  CB        51.0180   86.8840   29.2080 C.3   209  LYS209      0.0285
     90  CG        49.9250   85.8280   29.3600 C.3   209  LYS209      0.0035
     91  CD        48.6230   86.4180   29.8950 C.3   209  LYS209      0.0206
     92  CE        47.5700   85.3230   30.0450 C.3   209  LYS209      0.1093
     93  NZ        46.2140   85.9310   30.2550 N.3   209  LYS209     -0.1314
     94  N         51.9480   86.8750   26.2660 N.am  210  VAL210     -0.1980
     95  CA        51.6300   86.6160   24.8640 C.3   210  VAL210      0.1595
     96  C         52.6830   87.2240   23.9470 C.2   210  VAL210      0.2287
     97  O         53.1250   88.3510   24.1580 O.2   210  VAL210     -0.2864
     98  CB        50.2630   87.2240   24.4620 C.3   210  VAL210      0.0276
     99  CG1       49.9210   86.8550   23.0010 C.3   210  VAL210      0.0022
    100  CG2       49.1740   86.7600   25.4080 C.3   210  VAL210      0.0022
    101  N         53.2160   87.3790   19.5570 N.3   212  GLU212     -0.1245
    102  CA        52.8400   87.0170   18.1890 C.3   212  GLU212      0.1567
    103  C         53.7310   87.7360   17.1770 C.2   212  GLU212      0.2260
    104  O         53.9230   88.9490   17.2670 O.2   212  GLU212     -0.2867
    105  CB        51.3760   87.3730   17.9070 C.3   212  GLU212      0.0388
    106  CG        50.3710   86.4740   18.6070 C.3   212  GLU212      0.1160
    107  CD        48.9310   86.7510   18.1860 C.2   212  GLU212      0.3649
    108  OE1       48.6580   87.8250   17.5860 O.co2 212  GLU212     -0.2457
    109  OE2       48.0700   85.8900   18.4780 O.co2 212  GLU212     -0.2457
@<TRIPOS>BOND
     1   103   104    2
     2   103   102    1
     3   108   107   ar
     4     1     2    1
     5   105   102    1
     6   105   106    1
     7   107   109   ar
     8   107   106    1
     9   102   101    1
    10     5     2    1
    11     5     6    1
    12     7     8    1
    13     7     6    1
    14     2     3    1
    15     8     9    2
    16     9    11    1
    17     9    10    1
    18     3     4    2
    19    99    98    1
    20    68    70   ar
    21    68    67   ar
    22    70    72   ar
    23    96    97    2
    24    96    95    1
    25    17    16    1
    26    16    18    1
    27    16    13    1
    28    12    13    1
    29    66    67    1
    30    66    63    1
    31    98    95    1
    32    98   100    1
    33    25    23    1
    34    67    69   ar
    35    64    65    2
    36    64    63    1
    37    95    94    1
    38    13    14    1
    39    72    73    1
    40    72    71   ar
    41    19    20    1
    42    63    62    1
    43    69    71   ar
    44    23    20    1
    45    23    24    1
    46    20    21    1
    47    94    87   am
    48    14    15    2
    49    88    87    2
    50    87    86    1
    51    21    22    2
    52    21    26   am
    53    26    27    1
    54    86    85    1
    55    86    89    1
    56    57    56    2
    57    60    59   ar
    58    89    90    1
    59    90    91    1
    60    27    30    1
    61    27    28    1
    62    56    55    1
    63    91    92    1
    64    92    93    1
    65    59    61   ar
    66    59    58    1
    67    29    28    2
    68    30    31    1
    69    55    58    1
    70    55    54    1
    71    28    34   am
    72    31    32   ar
    73    31    33   ar
    74    54    47   am
    75    34    35    1
    76    42    44   ar
    77    42    40   ar
    78    44    43   ar
    79    84    82    1
    80    83    82    1
    81    40    39   ar
    82    43    41   ar
    83    74    75    1
    84    82    81    2
    85    35    36    1
    86    35    38    1
    87    47    48    2
    88    47    46    1
    89    39    41   ar
    90    39    38    1
    91    45    36   am
    92    45    46    1
    93    75    76    1
    94    75    78    1
    95    36    37    2
    96    79    78    1
    97    79    80    1
    98    81    80    1
    99    46    49    1
   100    76    77    2
   101    49    50    1
   102    53    51   ar
   103    50    51    1
   104    51    52   ar
