@<TRIPOS>MOLECULE
tmp/2j1lA00.pdb
 87 83 0 0 0
SMALL
GASTEIGER

@<TRIPOS>ATOM
      1  N        -33.7930   27.6380    6.5200 N.3    12  GLY12      -0.1210
      2  CA       -33.5910   28.9130    5.8500 C.3    12  GLY12       0.1956
      3  C        -32.1410   29.0400    5.4450 C.2    12  GLY12       0.2612
      4  O        -31.2530   28.6290    6.1820 O.2    12  GLY12      -0.2717
      5  N        -31.9100   29.5790    4.2480 N.am   13  GLY13      -0.1942
      6  CA       -30.5530   29.7910    3.7340 C.3    13  GLY13       0.2014
      7  C        -29.8920   28.5520    3.1410 C.2    13  GLY13       0.2639
      8  O        -28.7160   28.5980    2.7440 O.2    13  GLY13      -0.2714
      9  N        -30.6260   27.4430    3.0550 N.am   14  CYS14      -0.1953
     10  CA       -30.0370   26.2180    2.4970 C.3    14  CYS14       0.1843
     11  C        -30.1380   26.1590    0.9640 C.2    14  CYS14       0.2626
     12  O        -29.5810   25.2630    0.3560 O.2    14  CYS14      -0.2714
     13  CB       -30.6490   24.9700    3.1250 C.3    14  CYS14       0.0997
     14  SG       -32.2650   24.5640    2.4590 S.3    14  CYS14      -0.0797
     15  N        -30.8190   27.1230    0.3420 N.am   15  GLY15      -0.1940
     16  CA       -30.7560   27.2910   -1.1180 C.3    15  GLY15       0.2014
     17  C        -32.0350   26.9970   -1.8880 C.2    15  GLY15       0.2639
     18  O        -32.0110   26.9180   -3.1110 O.2    15  GLY15      -0.2714
     19  N        -33.1540   26.8880   -1.1750 N.am   16  LYS16      -0.1963
     20  CA       -34.4350   26.5130   -1.7630 C.3    16  LYS16       0.1728
     21  C        -34.9080   27.5130   -2.8180 C.2    16  LYS16       0.2617
     22  O        -35.1490   27.1400   -3.9670 O.2    16  LYS16      -0.2715
     23  CB       -35.4900   26.3380   -0.6610 C.3    16  LYS16       0.0311
     24  CG       -35.1470   25.1940    0.3610 C.3    16  LYS16       0.0038
     25  CD       -36.1440   25.0130    1.5250 C.3    16  LYS16       0.0206
     26  CE       -36.6290   26.3110    2.2200 C.3    16  LYS16       0.1093
     27  NZ       -35.5460   27.0570    2.8980 N.3    16  LYS16      -0.1314
     28  N        -35.0250   28.7830   -2.4460 N.am   17  THR17      -0.1937
     29  CA       -35.5190   29.8110   -3.3650 C.3    17  THR17       0.2028
     30  C        -34.6460   29.8760   -4.6180 C.2    17  THR17       0.2642
     31  O        -35.1430   30.0080   -5.7270 O.2    17  THR17      -0.2714
     32  CB       -35.5870   31.1970   -2.6850 C.3    17  THR17       0.1808
     33  OG1      -36.2760   31.0910   -1.4250 O.3    17  THR17      -0.2208
     34  CG2      -36.3160   32.1970   -3.5800 C.3    17  THR17       0.0379
     35  N        -33.3390   29.7400   -4.4330 N.am   18  SER18      -0.1949
     36  CA       -32.3750   29.7930   -5.5470 C.3    18  SER18       0.1924
     37  C        -32.4890   28.6330   -6.5090 C.2    18  SER18       0.2314
     38  O        -32.3030   28.7790   -7.7180 O.2    18  SER18      -0.2863
     39  CB       -30.9590   29.8170   -4.9920 C.3    18  SER18       0.2116
     40  OG       -30.7440   31.0660   -4.3790 O.3    18  SER18      -0.2180
     41  N        -27.9510   20.6920   -1.6340 N.3    93  CYS93      -0.1221
     42  CA       -27.7690   21.9230   -2.4100 C.3    93  CYS93       0.1808
     43  C        -26.3780   22.5870   -2.2520 C.2    93  CYS93       0.2601
     44  O        -25.6440   22.3130   -1.3020 O.2    93  CYS93      -0.2717
     45  CB       -28.8140   22.9400   -1.9940 C.3    93  CYS93       0.0970
     46  SG       -30.5570   22.4010   -2.2610 S.3    93  CYS93      -0.0800
     47  N        -26.0460   23.4770   -3.1870 N.am   94  LYS94      -0.1979
     48  CA       -24.7900   24.2010   -3.1790 C.3    94  LYS94       0.1596
     49  C        -23.5680   23.2720   -3.2660 C.2    94  LYS94       0.2287
     50  O        -22.5350   23.5420   -2.6360 O.2    94  LYS94      -0.2864
     51  CB       -24.6730   25.0720   -1.9270 C.3    94  LYS94       0.0298
     52  CG       -25.9140   25.8410   -1.5450 C.3    94  LYS94       0.0038
     53  CD       -25.5280   27.0210   -0.6450 C.3    94  LYS94       0.0206
     54  CE       -26.6990   27.5490    0.1560 C.3    94  LYS94       0.1093
     55  NZ       -26.2420   28.2280    1.4060 N.3    94  LYS94      -0.1314
     56  N        -21.3810   23.0360   -5.3200 N.3    96  ASP96      -0.1225
     57  CA       -20.2050   23.7600   -5.7830 C.3    96  ASP96       0.1805
     58  C        -19.2700   24.1530   -4.6320 C.2    96  ASP96       0.2597
     59  O        -18.0510   24.3080   -4.8330 O.2    96  ASP96      -0.2718
     60  CB       -20.6200   24.9990   -6.5790 C.3    96  ASP96       0.1424
     61  CG       -21.5250   25.9190   -5.7960 C.2    96  ASP96       0.3668
     62  OD1      -22.6810   25.5130   -5.4910 O.co2  96  ASP96      -0.2456
     63  OD2      -21.0890   27.0470   -5.4940 O.co2  96  ASP96      -0.2456
     64  N        -19.8290   24.2860   -3.4310 N.am   97  LEU97      -0.1979
     65  CA       -19.0660   24.7690   -2.2720 C.3    97  LEU97       0.1596
     66  C        -18.1510   23.7350   -1.5880 C.2    97  LEU97       0.2287
     67  O        -17.3660   24.1020   -0.7160 O.2    97  LEU97      -0.2864
     68  CB       -20.0180   25.4020   -1.2450 C.3    97  LEU97       0.0297
     69  CG       -20.6800   26.7100   -1.7130 C.3    97  LEU97       0.0022
     70  CD1      -21.4730   27.3600   -0.5680 C.3    97  LEU97       0.0001
     71  CD2      -19.6370   27.6600   -2.2720 C.3    97  LEU97       0.0001
     72  N        -27.3140   25.2950   -7.7230 N.3   137  ALA137     -0.1231
     73  CA       -28.0790   26.3040   -8.4280 C.3   137  ALA137      0.1694
     74  C        -27.1310   27.3340   -9.0380 C.2   137  ALA137      0.2591
     75  O        -27.4140   27.9130  -10.0830 O.2   137  ALA137     -0.2718
     76  CB       -29.0610   26.9620   -7.4940 C.3   137  ALA137      0.0304
     77  N        -25.9830   27.5410   -8.3980 N.am  138  ARG138     -0.1980
     78  CA       -25.0000   28.5030   -8.8800 C.3   138  ARG138      0.1597
     79  C        -24.4320   28.1390  -10.2520 C.2   138  ARG138      0.2287
     80  O        -24.2710   29.0120  -11.0930 O.2   138  ARG138     -0.2864
     81  CB       -23.8520   28.6390   -7.8720 C.3   138  ARG138      0.0334
     82  CG       -22.7420   29.6030   -8.3030 C.3   138  ARG138      0.0492
     83  CD       -23.2540   31.0430   -8.3380 C.3   138  ARG138      0.2205
     84  NE       -23.4340   31.5620   -6.9770 N.pl3 138  ARG138     -0.0865
     85  CZ       -22.6450   32.4600   -6.3820 C.cat 138  ARG138      0.5346
     86  NH1      -21.6040   32.9950   -7.0210 N.pl3 138  ARG138      0.1354
     87  NH2      -22.9140   32.8370   -5.1320 N.pl3 138  ARG138      0.1354
@<TRIPOS>BOND
     1    80    79    2
     2    79    78    1
     3    75    74    2
     4    74    73    1
     5    74    77   am
     6    78    77    1
     7    78    81    1
     8    73    72    1
     9    73    76    1
    10    83    82    1
    11    83    84    1
    12    82    81    1
    13    38    37    2
    14    86    85    1
    15    84    85    2
    16    60    61    1
    17    60    57    1
    18    37    36    1
    19    85    87    1
    20    61    63   ar
    21    61    62   ar
    22    57    56    1
    23    57    58    1
    24    31    30    2
    25    36    39    1
    26    36    35    1
    27    39    40    1
    28    59    58    2
    29    58    64   am
    30    30    35   am
    31    30    29    1
    32    22    21    2
    33    34    32    1
    34    64    65    1
    35    29    32    1
    36    29    28    1
    37    49    48    1
    38    49    50    2
    39    47    48    1
    40    47    43   am
    41    48    51    1
    42    18    17    2
    43    21    28   am
    44    21    20    1
    45    32    33    1
    46    42    43    1
    47    42    45    1
    48    42    41    1
    49    65    66    1
    50    65    68    1
    51    71    69    1
    52    46    45    1
    53    43    44    2
    54    51    52    1
    55    17    19   am
    56    17    16    1
    57    20    19    1
    58    20    23    1
    59    69    68    1
    60    69    70    1
    61    66    67    2
    62    52    53    1
    63    16    15    1
    64    23    24    1
    65    53    54    1
    66    54    55    1
    67    15    11   am
    68    12    11    2
    69    24    25    1
    70    11    10    1
    71    25    26    1
    72    26    27    1
    73    14    13    1
    74    10     9    1
    75    10    13    1
    76     8     7    2
    77     9     7   am
    78     7     6    1
    79     6     5    1
    80     5     3   am
    81     3     2    1
    82     3     4    2
    83     2     1    1
