@<TRIPOS>MOLECULE
tmp/2j1nC03.pdb
 73 69 0 0 0
SMALL
GASTEIGER

@<TRIPOS>ATOM
      1  N         21.8630   21.4210  -21.3750 N.3   182  GLY182     -0.1225
      2  CA        20.4940   21.1370  -21.7430 C.3   182  GLY182      0.1811
      3  C         20.4030   19.7970  -22.4070 C.2   182  GLY182      0.2280
      4  O         21.3910   19.3230  -22.9520 O.2   182  GLY182     -0.2866
      5  N         17.3830   17.1370  -24.7400 N.3   184  ILE184     -0.1245
      6  CA        16.0560   16.8880  -25.3280 C.3   184  ILE184      0.1561
      7  C         15.9470   15.4010  -25.6400 C.2   184  ILE184      0.2260
      8  O         16.8910   14.8040  -26.1480 O.2   184  ILE184     -0.2867
      9  CB        15.8090   17.7100  -26.6160 C.3   184  ILE184      0.0252
     10  CG1       15.9990   19.2100  -26.3540 C.3   184  ILE184      0.0019
     11  CG2       14.3730   17.4680  -27.1580 C.3   184  ILE184      0.0019
     12  CD1       16.1690   20.0470  -27.6230 C.3   184  ILE184      0.0001
     13  N         19.3760   14.2120  -27.4370 N.3   195  GLY195     -0.1210
     14  CA        20.6510   14.9330  -27.5040 C.3   195  GLY195      0.1956
     15  C         20.8690   15.7470  -26.2510 C.2   195  GLY195      0.2612
     16  O         19.9060   16.0970  -25.5260 O.2   195  GLY195     -0.2717
     17  N         22.1320   16.0280  -25.9730 N.am  196  ALA196     -0.1965
     18  CA        22.5090   16.8560  -24.8440 C.3   196  ALA196      0.1728
     19  C         23.7910   17.6170  -25.1600 C.2   196  ALA196      0.2616
     20  O         24.6500   17.1230  -25.9030 O.2   196  ALA196     -0.2715
     21  CB        22.6750   16.0000  -23.5980 C.3   196  ALA196      0.0334
     22  N         23.8760   18.8380  -24.6330 N.am  197  ILE197     -0.1977
     23  CA        25.0770   19.6750  -24.7250 C.3   197  ILE197      0.1596
     24  C         25.3730   20.2720  -23.3450 C.2   197  ILE197      0.2287
     25  O         24.4540   20.6680  -22.6230 O.2   197  ILE197     -0.2864
     26  CB        24.8830   20.8090  -25.7380 C.3   197  ILE197      0.0276
     27  CG1       24.5290   20.2410  -27.1150 C.3   197  ILE197      0.0022
     28  CG2       26.1450   21.6330  -25.9130 C.3   197  ILE197      0.0022
     29  CD1       24.3160   21.3090  -28.1890 C.3   197  ILE197      0.0001
     30  N         29.1010   17.1320  -26.2700 N.3   221  TYR221     -0.1227
     31  CA        28.0160   17.0370  -27.2500 C.3   221  TYR221      0.1736
     32  C         27.6730   15.5710  -27.4220 C.2   221  TYR221      0.2596
     33  O         28.5350   14.7790  -27.8030 O.2   221  TYR221     -0.2718
     34  CB        28.4570   17.6120  -28.5950 C.3   221  TYR221      0.0548
     35  CG        29.0070   19.0000  -28.4850 C.ar  221  TYR221     -0.0200
     36  CD1       28.1850   20.1100  -28.6290 C.ar  221  TYR221     -0.0009
     37  CD2       30.3470   19.2090  -28.1980 C.ar  221  TYR221     -0.0009
     38  CE1       28.6910   21.3950  -28.5000 C.ar  221  TYR221      0.0417
     39  CE2       30.8630   20.4860  -28.0730 C.ar  221  TYR221      0.0417
     40  CZ        30.0290   21.5750  -28.2280 C.ar  221  TYR221      0.1957
     41  OH        30.5540   22.8440  -28.1120 O.3   221  TYR221     -0.2866
     42  N         26.4060   15.2250  -27.1600 N.am  222  THR222     -0.1939
     43  CA        25.9690   13.8440  -27.0650 C.3   222  THR222      0.2028
     44  C         24.7140   13.6050  -27.8970 C.2   222  THR222      0.2642
     45  O         23.7910   14.4180  -27.8800 O.2   222  THR222     -0.2714
     46  CB        25.6220   13.4760  -25.5890 C.3   222  THR222      0.1808
     47  OG1       26.7800   13.6330  -24.7690 O.3   222  THR222     -0.2208
     48  CG2       25.1190   12.0480  -25.4930 C.3   222  THR222      0.0379
     49  N         24.7020   12.4920  -28.6270 N.am  223  GLY223     -0.1954
     50  CA        23.4970   11.9890  -29.2820 C.3   223  GLY223      0.1869
     51  C         23.3100   10.5500  -28.8690 C.2   223  GLY223      0.2309
     52  O         24.2790    9.8570  -28.5610 O.2   223  GLY223     -0.2863
     53  N         26.8170    8.4340  -28.5940 N.3   238  TYR238     -0.1241
     54  CA        28.0880    8.9600  -29.0620 C.3   238  TYR238      0.1605
     55  C         28.2580   10.3470  -28.4780 C.2   238  TYR238      0.2264
     56  O         27.3530   11.1640  -28.5720 O.2   238  TYR238     -0.2867
     57  CB        28.1310    9.0490  -30.5930 C.3   238  TYR238      0.0534
     58  CG        29.3980    9.7060  -31.0600 C.ar  238  TYR238     -0.0201
     59  CD1       30.5970    9.0020  -31.0570 C.ar  238  TYR238     -0.0009
     60  CD2       29.4230   11.0480  -31.4380 C.ar  238  TYR238     -0.0009
     61  CE1       31.7960    9.5990  -31.4640 C.ar  238  TYR238      0.0417
     62  CE2       30.6290   11.6610  -31.8520 C.ar  238  TYR238      0.0417
     63  CZ        31.8020   10.9280  -31.8520 C.ar  238  TYR238      0.1957
     64  OH        32.9930   11.5000  -32.2420 O.3   238  TYR238     -0.2866
     65  N         31.1430   13.6620  -28.0110 N.3   240  GLN240     -0.1245
     66  CA        32.3600   14.3250  -28.3880 C.3   240  GLN240      0.1566
     67  C         32.6500   15.3520  -27.2940 C.2   240  GLN240      0.2260
     68  O         31.7950   16.1760  -26.9490 O.2   240  GLN240     -0.2867
     69  CB        32.1940   14.9820  -29.7610 C.3   240  GLN240      0.0367
     70  CG        33.4610   15.5920  -30.2840 C.3   240  GLN240      0.0905
     71  CD        33.5760   15.5380  -31.8010 C.2   240  GLN240      0.2608
     72  OE1       33.0590   14.6290  -32.4610 O.2   240  GLN240     -0.2717
     73  NE2       34.2510   16.5140  -32.3570 N.am  240  GLN240     -0.0878
@<TRIPOS>BOND
     1    72    71    2
     2    73    71   am
     3    64    63    1
     4    62    63   ar
     5    62    60   ar
     6    63    61   ar
     7    71    70    1
     8    61    59   ar
     9    60    58   ar
    10    58    59   ar
    11    58    57    1
    12    57    54    1
    13    70    69    1
    14    69    66    1
    15    50    51    1
    16    50    49    1
    17    54    53    1
    18    54    55    1
    19    51    52    2
    20    36    38   ar
    21    36    35   ar
    22    49    44   am
    23    34    35    1
    24    34    31    1
    25    56    55    2
    26    38    40   ar
    27    35    37   ar
    28    66    65    1
    29    66    67    1
    30    40    41    1
    31    40    39   ar
    32    37    39   ar
    33    29    27    1
    34    44    45    2
    35    44    43    1
    36    33    32    2
    37    12    10    1
    38    14    13    1
    39    14    15    1
    40    32    31    1
    41    32    42   am
    42    67    68    2
    43    31    30    1
    44    42    43    1
    45    11     9    1
    46    27    26    1
    47    43    46    1
    48     9    10    1
    49     9     6    1
    50    15    17   am
    51    15    16    2
    52     8     7    2
    53    17    18    1
    54    28    26    1
    55    20    19    2
    56    26    23    1
    57     7     6    1
    58    46    48    1
    59    46    47    1
    60     6     5    1
    61    19    18    1
    62    19    22   am
    63    18    21    1
    64    23    22    1
    65    23    24    1
    66    24    25    2
    67     4     3    2
    68     3     2    1
    69     2     1    1
