@<TRIPOS>MOLECULE
tmp/2j1nC04.pdb
 107 104 0 0 0
SMALL
GASTEIGER

@<TRIPOS>ATOM
      1  N         10.6250    3.2520  -29.1420 N.3   191  PHE191     -0.1241
      2  CA        11.8420    3.9460  -29.5980 C.3   191  PHE191      0.1605
      3  C         12.1580    5.2740  -28.9040 C.2   191  PHE191      0.2264
      4  O         11.2730    5.9580  -28.3970 O.2   191  PHE191     -0.2867
      5  CB        11.7350    4.2090  -31.0980 C.3   191  PHE191      0.0534
      6  CG        11.5090    2.9650  -31.9210 C.ar  191  PHE191     -0.0203
      7  CD1       12.5900    2.2650  -32.4630 C.ar  191  PHE191     -0.0042
      8  CD2       10.2220    2.5020  -32.1660 C.ar  191  PHE191     -0.0042
      9  CE1       12.3850    1.1130  -33.2340 C.ar  191  PHE191     -0.0003
     10  CE2       10.0060    1.3530  -32.9350 C.ar  191  PHE191     -0.0003
     11  CZ        11.0920    0.6580  -33.4650 C.ar  191  PHE191     -0.0000
     12  N         20.3530    6.9180  -29.0590 N.3   225  LEU225     -0.1231
     13  CA        19.2140    6.2100  -29.6430 C.3   225  LEU225      0.1693
     14  C         18.9140    5.0380  -28.7410 C.2   225  LEU225      0.2592
     15  O         19.8150    4.4970  -28.1130 O.2   225  LEU225     -0.2718
     16  CB        19.5560    5.6700  -31.0320 C.3   225  LEU225      0.0284
     17  CG        19.6200    6.6680  -32.1890 C.3   225  LEU225      0.0019
     18  CD1       20.2310    6.0050  -33.4360 C.3   225  LEU225      0.0001
     19  CD2       18.2510    7.2290  -32.4760 C.3   225  LEU225      0.0001
     20  N         17.6500    4.6340  -28.7000 N.am  226  LYS226     -0.1966
     21  CA        17.2090    3.5700  -27.8300 C.3   226  LYS226      0.1728
     22  C         15.9850    2.8730  -28.4420 C.2   226  LYS226      0.2616
     23  O         15.1530    3.5190  -29.0890 O.2   226  LYS226     -0.2715
     24  CB        16.8510    4.1850  -26.4700 C.3   226  LYS226      0.0311
     25  CG        16.1210    3.2810  -25.5050 C.3   226  LYS226      0.0038
     26  CD        15.2070    4.0680  -24.5540 C.3   226  LYS226      0.0206
     27  CE        13.8480    4.3190  -25.1620 C.3   226  LYS226      0.1093
     28  NZ        12.7880    4.5290  -24.1430 N.3   226  LYS226     -0.1314
     29  N         15.9080    1.5570  -28.2520 N.am  227  TYR227     -0.1974
     30  CA        14.6700    0.7850  -28.4580 C.3   227  TYR227      0.1639
     31  C         14.4360   -0.0840  -27.2270 C.2   227  TYR227      0.2290
     32  O         15.3370   -0.8080  -26.8110 O.2   227  TYR227     -0.2864
     33  CB        14.7810   -0.1130  -29.6780 C.3   227  TYR227      0.0560
     34  CG        13.5520   -0.9790  -29.9030 C.ar  227  TYR227     -0.0198
     35  CD1       12.3720   -0.4280  -30.3810 C.ar  227  TYR227     -0.0009
     36  CD2       13.5730   -2.3420  -29.6280 C.ar  227  TYR227     -0.0009
     37  CE1       11.2410   -1.2130  -30.5880 C.ar  227  TYR227      0.0417
     38  CE2       12.4490   -3.1380  -29.8310 C.ar  227  TYR227      0.0417
     39  CZ        11.2880   -2.5700  -30.3100 C.ar  227  TYR227      0.1957
     40  OH        10.1660   -3.3620  -30.5080 O.3   227  TYR227     -0.2866
     41  N         17.8290   -2.1980  -26.8420 N.3   234  LEU234     -0.1231
     42  CA        18.9980   -1.7620  -27.6170 C.3   234  LEU234      0.1693
     43  C         19.2580   -0.2870  -27.3450 C.2   234  LEU234      0.2592
     44  O         18.3110    0.5010  -27.3070 O.2   234  LEU234     -0.2718
     45  CB        18.7330   -1.9560  -29.1140 C.3   234  LEU234      0.0284
     46  CG        18.3280   -3.3500  -29.5880 C.3   234  LEU234      0.0019
     47  CD1       17.8760   -3.3130  -31.0770 C.3   234  LEU234      0.0001
     48  CD2       19.4520   -4.3340  -29.4190 C.3   234  LEU234      0.0001
     49  N         20.5170    0.1000  -27.1600 N.am  235  ALA235     -0.1966
     50  CA        20.8420    1.5210  -27.0560 C.3   235  ALA235      0.1728
     51  C         22.2650    1.8290  -27.4860 C.2   235  ALA235      0.2616
     52  O         23.1580    0.9670  -27.4210 O.2   235  ALA235     -0.2715
     53  CB        20.5760    2.0410  -25.6470 C.3   235  ALA235      0.0334
     54  N         22.4650    3.0550  -27.9640 N.am  236  ALA236     -0.1977
     55  CA        23.8000    3.5350  -28.3200 C.3   236  ALA236      0.1597
     56  C         23.8810    5.0270  -28.0800 C.2   236  ALA236      0.2287
     57  O         22.8840    5.7310  -28.2440 O.2   236  ALA236     -0.2864
     58  CB        24.1400    3.2100  -29.7740 C.3   236  ALA236      0.0319
     59  N         27.5210    1.1510  -26.8400 N.3   261  ALA261     -0.1231
     60  CA        26.3180    0.4960  -27.3800 C.3   261  ALA261      0.1694
     61  C         26.0470   -0.7800  -26.6130 C.2   261  ALA261      0.2592
     62  O         26.9780   -1.4280  -26.1460 O.2   261  ALA261     -0.2718
     63  CB        26.4870    0.1890  -28.8640 C.3   261  ALA261      0.0304
     64  N         24.7730   -1.1370  -26.4930 N.am  262  VAL262     -0.1966
     65  CA        24.3550   -2.2710  -25.6780 C.3   262  VAL262      0.1727
     66  C         23.1550   -2.9820  -26.3120 C.2   262  VAL262      0.2616
     67  O         22.3130   -2.3500  -26.9490 O.2   262  VAL262     -0.2715
     68  CB        24.0270   -1.8250  -24.2150 C.3   262  VAL262      0.0290
     69  CG1       22.9260   -0.7680  -24.1760 C.3   262  VAL262      0.0023
     70  CG2       23.6410   -3.0200  -23.3500 C.3   262  VAL262      0.0023
     71  N         23.1090   -4.3000  -26.1410 N.am  263  ALA263     -0.1977
     72  CA        21.9920   -5.1260  -26.5780 C.3   263  ALA263      0.1597
     73  C         21.6530   -6.1260  -25.4810 C.2   263  ALA263      0.2287
     74  O         22.5400   -6.8390  -24.9970 O.2   263  ALA263     -0.2864
     75  CB        22.3550   -5.8550  -27.8820 C.3   263  ALA263      0.0319
     76  N         25.1370   -7.8330  -23.9650 N.3   275  LEU275     -0.1231
     77  CA        26.3330   -7.6230  -24.7670 C.3   275  LEU275      0.1693
     78  C         26.5350   -6.1170  -24.9500 C.2   275  LEU275      0.2592
     79  O         25.5900   -5.3910  -25.3000 O.2   275  LEU275     -0.2718
     80  CB        26.1640   -8.2820  -26.1410 C.3   275  LEU275      0.0284
     81  CG        27.3410   -8.1460  -27.1080 C.3   275  LEU275      0.0019
     82  CD1       28.5250   -8.9480  -26.6170 C.3   275  LEU275      0.0001
     83  CD2       26.9120   -8.5900  -28.5010 C.3   275  LEU275      0.0001
     84  N         27.7660   -5.6530  -24.7490 N.am  276  ALA276     -0.1966
     85  CA        28.0640   -4.2260  -24.8270 C.3   276  ALA276      0.1728
     86  C         29.4780   -3.9650  -25.3320 C.2   276  ALA276      0.2616
     87  O         30.3690   -4.8180  -25.2130 O.2   276  ALA276     -0.2715
     88  CB        27.8470   -3.5550  -23.4410 C.3   276  ALA276      0.0334
     89  N         29.6500   -2.7960  -25.9400 N.am  277  TYR277     -0.1974
     90  CA        30.9470   -2.3320  -26.4100 C.3   277  TYR277      0.1639
     91  C         31.0870   -0.8890  -25.9850 C.2   277  TYR277      0.2290
     92  O         30.1740   -0.0950  -26.2020 O.2   277  TYR277     -0.2864
     93  CB        31.0910   -2.4470  -27.9350 C.3   277  TYR277      0.0560
     94  CG        32.4270   -1.9510  -28.4330 C.ar  277  TYR277     -0.0198
     95  CD1       33.5230   -2.8060  -28.5270 C.ar  277  TYR277     -0.0009
     96  CD2       32.6070   -0.6140  -28.7830 C.ar  277  TYR277     -0.0009
     97  CE1       34.7650   -2.3410  -28.9800 C.ar  277  TYR277      0.0417
     98  CE2       33.8220   -0.1420  -29.2180 C.ar  277  TYR277      0.0417
     99  CZ        34.9100   -1.0030  -29.3130 C.ar  277  TYR277      0.1957
    100  OH        36.1270   -0.5130  -29.7530 O.3   277  TYR277     -0.2866
    101  N         34.7950   -4.9300  -24.4710 N.3   298  VAL298     -0.1245
    102  CA        33.5350   -5.6040  -24.7090 C.3   298  VAL298      0.1561
    103  C         33.0930   -6.2310  -23.3960 C.2   298  VAL298      0.2260
    104  O         33.9100   -6.7490  -22.6330 O.2   298  VAL298     -0.2867
    105  CB        33.6620   -6.7070  -25.7720 C.3   298  VAL298      0.0252
    106  CG1       32.3250   -7.4380  -25.9710 C.3   298  VAL298      0.0019
    107  CG2       34.1380   -6.1180  -27.0990 C.3   298  VAL298      0.0019
@<TRIPOS>BOND
     1    11     9   ar
     2    11    10   ar
     3    18    17    1
     4     9     7   ar
     5    10     8   ar
     6    19    17    1
     7     7     6   ar
     8    17    16    1
     9     8     6   ar
    10     6     5    1
    11     5     2    1
    12    47    46    1
    13    16    13    1
    14    37    35   ar
    15    37    39   ar
    16    40    39    1
    17    35    34   ar
    18    39    38   ar
    19    34    33    1
    20    34    36   ar
    21    38    36   ar
    22    58    55    1
    23   100    99    1
    24    33    30    1
    25    13    12    1
    26    13    14    1
    27     2     1    1
    28     2     3    1
    29    46    48    1
    30    46    45    1
    31    99    98   ar
    32    99    97   ar
    33    98    96   ar
    34    45    42    1
    35    23    22    2
    36    97    95   ar
    37     3     4    2
    38    63    60    1
    39    96    94   ar
    40    14    20   am
    41    14    15    2
    42    20    21    1
    43    95    94   ar
    44    83    81    1
    45    30    29    1
    46    30    31    1
    47    22    29   am
    48    22    21    1
    49    94    93    1
    50    55    56    1
    51    55    54    1
    52    57    56    2
    53    54    51   am
    54    93    90    1
    55    75    72    1
    56    21    24    1
    57    42    43    1
    58    42    41    1
    59    51    52    2
    60    51    50    1
    61    60    59    1
    62    60    61    1
    63    43    44    2
    64    43    49   am
    65    31    32    2
    66    49    50    1
    67    81    82    1
    68    81    80    1
    69   107   105    1
    70    50    53    1
    71    67    66    2
    72    61    64   am
    73    61    62    2
    74    72    71    1
    75    72    73    1
    76    64    65    1
    77    24    25    1
    78    90    91    1
    79    90    89    1
    80    66    71   am
    81    66    65    1
    82    92    91    2
    83    80    77    1
    84   106   105    1
    85    89    86   am
    86   105   102    1
    87    65    68    1
    88    25    26    1
    89    73    74    2
    90    86    87    2
    91    86    85    1
    92    79    78    2
    93    27    26    1
    94    27    28    1
    95    78    77    1
    96    78    84   am
    97    85    84    1
    98    85    88    1
    99    77    76    1
   100   102   101    1
   101   102   103    1
   102    68    69    1
   103    68    70    1
   104   103   104    2
