@<TRIPOS>MOLECULE
tmp/2j1pA00.pdb
 215 205 0 0 0
SMALL
GASTEIGER

@<TRIPOS>ATOM
      1  N         13.5260   30.8450   -1.7420 N.3    38  GLY38      -0.1210
      2  CA        12.4600   31.8360   -1.8850 C.3    38  GLY38       0.1956
      3  C         11.0430   31.4690   -1.4530 C.2    38  GLY38       0.2612
      4  O         10.0790   31.7730   -2.1660 O.2    38  GLY38      -0.2717
      5  N         10.8760   30.8650   -0.2960 N.am   39  GLY39      -0.1942
      6  CA         9.5170   30.6940    0.2370 C.3    39  GLY39       0.2014
      7  C          8.7900   32.0170    0.3760 C.2    39  GLY39       0.2639
      8  O          9.4140   33.0380    0.6510 O.2    39  GLY39      -0.2714
      9  N          7.4730   32.0050    0.1620 N.am   40  LYS40      -0.1963
     10  CA         6.5980   33.1640    0.4310 C.3    40  LYS40       0.1728
     11  C          6.4080   33.4420    1.9350 C.2    40  LYS40       0.2616
     12  O          5.9160   34.5160    2.3200 O.2    40  LYS40      -0.2715
     13  CB         5.2050   32.9160   -0.1500 C.3    40  LYS40       0.0311
     14  CG         5.1670   32.8010   -1.6610 C.3    40  LYS40       0.0038
     15  CD         3.8670   32.1510   -2.1240 C.3    40  LYS40       0.0206
     16  CE         3.9410   30.6210   -1.9590 C.3    40  LYS40       0.1093
     17  NZ         2.6930   29.9680   -2.3560 N.3    40  LYS40      -0.1314
     18  N          6.7560   32.4490    2.7670 N.am   41  ARG41      -0.1963
     19  CA         6.7390   32.5710    4.2360 C.3    41  ARG41       0.1729
     20  C          5.3540   32.7470    4.8410 C.2    41  ARG41       0.2616
     21  O          5.2270   33.2650    5.9410 O.2    41  ARG41      -0.2715
     22  CB         7.6430   33.6860    4.7120 C.3    41  ARG41       0.0348
     23  CG         9.0240   33.7010    4.0830 C.3    41  ARG41       0.0492
     24  CD         9.8080   32.4310    4.3840 C.3    41  ARG41       0.2205
     25  NE        11.2140   32.6320    4.0700 N.pl3  41  ARG41      -0.0865
     26  CZ        12.1050   31.6540    3.9040 C.cat  41  ARG41       0.5346
     27  NH1       11.7630   30.3760    3.9870 N.pl3  41  ARG41       0.1354
     28  NH2       13.3640   31.9670    3.6050 N.pl3  41  ARG41       0.1354
     29  N          4.3140   32.2650    4.1750 N.am   42  VAL42      -0.1963
     30  CA         2.9730   32.4060    4.7380 C.3    42  VAL42       0.1727
     31  C          2.8560   31.8480    6.1780 C.2    42  VAL42       0.2616
     32  O          2.1490   32.3990    6.9640 O.2    42  VAL42      -0.2715
     33  CB         1.8610   31.7480    3.8710 C.3    42  VAL42       0.0290
     34  CG1        2.1150   30.3230    3.6650 C.3    42  VAL42       0.0023
     35  CG2        0.4840   31.8710    4.5440 C.3    42  VAL42       0.0023
     36  N          3.5220   30.7390    6.4910 N.am   43  ARG43      -0.1977
     37  CA         3.3480   30.0960    7.8190 C.3    43  ARG43       0.1597
     38  C          3.9080   30.9830    8.9370 C.2    43  ARG43       0.2287
     39  O          3.1730   31.3410    9.8870 O.2    43  ARG43      -0.2864
     40  CB         3.9490   28.6690    7.8080 C.3    43  ARG43       0.0334
     41  CG         3.1560   27.7310    6.8850 C.3    43  ARG43       0.0492
     42  CD         3.8450   26.4200    6.5330 C.3    43  ARG43       0.2205
     43  NE         3.1070   25.7120    5.4910 N.pl3  43  ARG43      -0.0865
     44  CZ         3.0790   26.0240    4.1900 C.cat  43  ARG43       0.5346
     45  NH1        2.3740   25.2720    3.3370 N.pl3  43  ARG43       0.1354
     46  NH2        3.7460   27.0630    3.7090 N.pl3  43  ARG43       0.1354
     47  N          8.5430   27.5570   10.0470 N.3    68  GLU68      -0.1245
     48  CA         9.1810   27.5990    8.7110 C.3    68  GLU68       0.1567
     49  C         10.2880   26.5690    8.5370 C.2    68  GLU68       0.2260
     50  O         10.4630   26.0160    7.4360 O.2    68  GLU68      -0.2867
     51  CB         9.7710   28.9460    8.4300 C.3    68  GLU68       0.0388
     52  CG        10.1620   29.1770    6.9610 C.3    68  GLU68       0.1160
     53  CD         9.0190   29.0610    5.9250 C.2    68  GLU68       0.3649
     54  OE1        7.8170   28.9420    6.2550 O.co2  68  GLU68      -0.2457
     55  OE2        9.3320   29.0670    4.7300 O.co2  68  GLU68      -0.2457
     56  N         10.2740   23.6990   10.0700 N.3    69  ILE69      -0.1231
     57  CA         9.5180   22.5110    9.8770 C.3    69  ILE69       0.1692
     58  C          8.9220   22.4250    8.4820 C.2    69  ILE69       0.2592
     59  O          8.9660   21.3530    7.8730 O.2    69  ILE69      -0.2718
     60  CB         8.4560   22.2910   10.9860 C.3    69  ILE69       0.0266
     61  CG1        9.1840   21.9740   12.3280 C.3    69  ILE69       0.0019
     62  CG2        7.5090   21.0080   10.5680 C.3    69  ILE69       0.0020
     63  CD1        8.2360   22.0490   13.5270 C.3    69  ILE69       0.0001
     64  N          8.3710   23.5160    7.9480 N.am   70  HIS70      -0.1976
     65  CA         7.8960   23.5100    6.5830 C.3    70  HIS70       0.1656
     66  C          9.0480   23.1290    5.6450 C.2    70  HIS70       0.2291
     67  O          8.9060   22.2880    4.7700 O.2    70  HIS70      -0.2864
     68  CB         7.4370   24.9060    6.2080 C.3    70  HIS70       0.0771
     69  CG         6.9760   25.0370    4.7990 C.ar   70  HIS70       0.0820
     70  ND1        6.0910   24.1490    4.2070 N.ar   70  HIS70      -0.2267
     71  CD2        7.2680   25.9700    3.8550 C.ar   70  HIS70       0.1154
     72  CE1        5.8640   24.5410    2.9660 C.ar   70  HIS70       0.1986
     73  NE2        6.5460   25.6480    2.7340 N.ar   70  HIS70      -0.2212
     74  N         10.0210   19.4230    5.7570 N.3    72  SER72      -0.1202
     75  CA         8.9790   18.6050    5.0910 C.3    72  SER72       0.2020
     76  C          9.1510   18.5260    3.6030 C.2    72  SER72       0.2618
     77  O          8.8900   17.4890    3.0060 O.2    72  SER72      -0.2717
     78  CB         7.5660   19.0760    5.4370 C.3    72  SER72       0.2103
     79  OG         7.1580   20.2730    4.8040 O.3    72  SER72      -0.2182
     80  N          9.6350   19.6210    3.0210 N.am   73  LEU73      -0.1979
     81  CA         9.8730   19.7070    1.5990 C.3    73  LEU73       0.1596
     82  C         11.0780   18.8840    1.2480 C.2    73  LEU73       0.2287
     83  O         11.0500   18.1630    0.2800 O.2    73  LEU73      -0.2864
     84  CB        10.0910   21.1640    1.2000 C.3    73  LEU73       0.0297
     85  CG         8.8780   22.0830    1.4960 C.3    73  LEU73       0.0022
     86  CD1        9.1280   23.4850    1.0140 C.3    73  LEU73       0.0001
     87  CD2        7.5830   21.5640    0.9130 C.3    73  LEU73       0.0001
     88  N         12.3840   16.3340    2.7820 N.3    75  HIS75      -0.1226
     89  CA        12.1100   14.8960    2.8280 C.3    75  HIS75       0.1752
     90  C         11.1230   14.4720    1.7090 C.2    75  HIS75       0.2596
     91  O         11.2480   13.3890    1.1060 O.2    75  HIS75      -0.2718
     92  CB        11.6420   14.5060    4.2380 C.3    75  HIS75       0.0759
     93  CG        12.7550   14.4150    5.2500 C.ar   75  HIS75       0.0818
     94  ND1       12.5850   13.7880    6.4670 N.ar   75  HIS75      -0.2268
     95  CD2       14.0430   14.8460    5.2310 C.ar   75  HIS75       0.1154
     96  CE1       13.7140   13.8300    7.1530 C.ar   75  HIS75       0.1986
     97  NE2       14.6240   14.4350    6.4190 N.ar   75  HIS75      -0.2212
     98  N         10.1410   15.3060    1.4370 N.am   76  ASP76      -0.1974
     99  CA         9.1240   14.9520    0.4280 C.3    76  ASP76       0.1709
    100  C          9.7480   14.7910   -0.9420 C.2    76  ASP76       0.2293
    101  O          9.3350   13.9330   -1.7260 O.2    76  ASP76      -0.2864
    102  CB         8.0700   16.0020    0.3320 C.3    76  ASP76       0.1436
    103  CG         7.0220   15.6150   -0.6560 C.2    76  ASP76       0.3671
    104  OD1        6.4640   14.5160   -0.4460 O.co2  76  ASP76      -0.2456
    105  OD2        6.8080   16.3510   -1.6470 O.co2  76  ASP76      -0.2456
    106  N          8.4900   11.9480   -3.3190 N.3    81  ASP81      -0.1239
    107  CA         7.9950   12.6050   -4.5300 C.3    81  ASP81       0.1674
    108  C          9.0160   12.6330   -5.6400 C.2    81  ASP81       0.2266
    109  O          8.6620   12.8850   -6.7790 O.2    81  ASP81      -0.2867
    110  CB         7.5230   14.0280   -4.2540 C.3    81  ASP81       0.1410
    111  CG         6.2620   14.0650   -3.4080 C.2    81  ASP81       0.3668
    112  OD1        5.9240   13.0200   -2.7950 O.co2  81  ASP81      -0.2456
    113  OD2        5.6310   15.1470   -3.3230 O.co2  81  ASP81      -0.2456
    114  N         12.4020   22.3480   -7.2780 N.3    86  ARG86      -0.1231
    115  CA        11.3890   22.9750   -6.4480 C.3    86  ARG86       0.1694
    116  C         11.7410   24.4520   -6.3740 C.2    86  ARG86       0.2591
    117  O         12.9250   24.8110   -6.3320 O.2    86  ARG86      -0.2718
    118  CB        11.3570   22.3700   -5.0530 C.3    86  ARG86       0.0321
    119  CG        10.3670   23.0890   -4.1330 C.3    86  ARG86       0.0489
    120  CD        10.3510   22.5310   -2.7820 C.3    86  ARG86       0.2205
    121  NE         9.6770   21.2370   -2.6850 N.pl3  86  ARG86      -0.0865
    122  CZ         8.3590   21.0450   -2.6450 C.cat  86  ARG86       0.5346
    123  NH1        7.8770   19.8130   -2.5210 N.pl3  86  ARG86       0.1354
    124  NH2        7.5190   22.0540   -2.7390 N.pl3  86  ARG86       0.1354
    125  N         10.7210   25.3060   -6.3710 N.am   87  ARG87      -0.1980
    126  CA        10.9320   26.7520   -6.4320 C.3    87  ARG87       0.1597
    127  C         11.7060   27.1410   -7.7070 C.2    87  ARG87       0.2287
    128  O         12.2810   28.2290   -7.7860 O.2    87  ARG87      -0.2864
    129  CB        11.6490   27.2460   -5.1520 C.3    87  ARG87       0.0334
    130  CG        10.7530   27.2250   -3.8900 C.3    87  ARG87       0.0492
    131  CD        11.5620   27.0790   -2.5800 C.3    87  ARG87       0.2205
    132  NE        10.6840   26.9240   -1.4140 N.pl3  87  ARG87      -0.0865
    133  CZ        11.0590   27.0430   -0.1330 C.cat  87  ARG87       0.5346
    134  NH1       12.3260   27.3160    0.2060 N.pl3  87  ARG87       0.1354
    135  NH2       10.1550   26.8830    0.8270 N.pl3  87  ARG87       0.1354
    136  N         14.2630   19.9510   11.6980 N.3   109  LEU109     -0.1245
    137  CA        13.1340   19.5410   12.5890 C.3   109  LEU109      0.1561
    138  C         13.4880   19.7040   14.0620 C.2   109  LEU109      0.2260
    139  O         12.7250   20.2740   14.8250 O.2   109  LEU109     -0.2867
    140  CB        12.6870   18.1040   12.2840 C.3   109  LEU109      0.0270
    141  CG        11.4640   17.4790   13.0550 C.3   109  LEU109      0.0019
    142  CD1       10.2610   18.3120   13.0960 C.3   109  LEU109      0.0001
    143  CD2       11.1280   16.1010   12.5270 C.3   109  LEU109      0.0001
    144  N          2.3230   18.0840   13.4150 N.3   140  ILE140     -0.1231
    145  CA         3.2160   17.4700   12.4150 C.3   140  ILE140      0.1692
    146  C          3.4520   15.9500   12.3440 C.2   140  ILE140      0.2592
    147  O          3.9910   15.4300   11.3590 O.2   140  ILE140     -0.2718
    148  CB         4.5280   18.1930   12.3730 C.3   140  ILE140      0.0266
    149  CG1        5.4820   17.7830   13.4820 C.3   140  ILE140      0.0019
    150  CG2        4.2270   19.7160   12.3550 C.3   140  ILE140      0.0020
    151  CD1        6.6410   18.7100   13.6100 C.3   140  ILE140      0.0001
    152  N          3.0010   15.2340   13.3580 N.am  141  GLY141     -0.1957
    153  CA         3.1760   13.8010   13.3810 C.3   141  GLY141      0.1869
    154  C          2.0030   13.0930   12.7580 C.2   141  GLY141      0.2309
    155  O          1.3790   13.6230   11.8510 O.2   141  GLY141     -0.2863
    156  N          0.3010   16.1840    9.9300 N.3   145  LEU145     -0.1231
    157  CA         0.9930   16.1530    8.6490 C.3   145  LEU145      0.1693
    158  C          1.3870   14.7920    8.0780 C.2   145  LEU145      0.2591
    159  O          1.1910   14.5120    6.8940 O.2   145  LEU145     -0.2718
    160  CB         2.2330   16.9960    8.7560 C.3   145  LEU145      0.0284
    161  CG         3.1520   17.1840    7.5600 C.3   145  LEU145      0.0019
    162  CD1        2.3290   17.5430    6.2880 C.3   145  LEU145      0.0001
    163  CD2        4.1530   18.2820    7.8690 C.3   145  LEU145      0.0001
    164  N          2.0610   13.9740    8.8810 N.am  146  VAL146     -0.1980
    165  CA         2.5550   12.6790    8.4100 C.3   146  VAL146      0.1595
    166  C          1.3770   11.8240    7.9680 C.2   146  VAL146      0.2287
    167  O          1.4780   11.1410    7.0140 O.2   146  VAL146     -0.2864
    168  CB         3.5110   11.9510    9.4560 C.3   146  VAL146      0.0276
    169  CG1        3.8730   10.5370    9.0040 C.3   146  VAL146      0.0022
    170  CG2        4.8100   12.7350    9.6810 C.3   146  VAL146      0.0022
    171  N          0.7740   12.7230    4.4290 N.3   149  GLN149     -0.1245
    172  CA         1.7970   12.1700    3.5370 C.3   149  GLN149      0.1566
    173  C          1.6270   10.6740    3.2730 C.2   149  GLN149      0.2260
    174  O          1.7330   10.2330    2.1440 O.2   149  GLN149     -0.2867
    175  CB         3.2010   12.4350    4.0730 C.3   149  GLN149      0.0367
    176  CG         4.3320   12.0810    3.0640 C.3   149  GLN149      0.0905
    177  CD         4.3920   12.9800    1.8260 C.2   149  GLN149      0.2608
    178  OE1        3.4970   13.7970    1.5540 O.2   149  GLN149     -0.2717
    179  NE2        5.4350   12.7840    1.0250 N.am  149  GLN149     -0.0878
    180  N         -1.8710   17.9280    4.8330 N.3   172  LYS172     -0.1231
    181  CA        -0.5920   18.3730    4.2690 C.3   172  LYS172      0.1693
    182  C         -0.5260   19.8850    4.1210 C.2   172  LYS172      0.2592
    183  O          0.5510   20.4120    3.8770 O.2   172  LYS172     -0.2718
    184  CB        -0.3590   17.7360    2.9220 C.3   172  LYS172      0.0285
    185  CG        -0.0330   16.2860    3.0450 C.3   172  LYS172      0.0035
    186  CD         0.2590   15.5980    1.7130 C.3   172  LYS172      0.0206
    187  CE         1.4920   16.1590    0.9960 C.3   172  LYS172      0.1093
    188  NZ         1.8930   15.1260   -0.0160 N.3   172  LYS172     -0.1314
    189  N         -1.6660   20.5670    4.2040 N.am  173  THR173     -0.1953
    190  CA        -1.6630   22.0640    4.1370 C.3   173  THR173      0.1897
    191  C         -2.2110   22.6900    5.4090 C.2   173  THR173      0.2313
    192  O         -1.5420   23.5370    5.9930 O.2   173  THR173     -0.2863
    193  CB        -2.4270   22.6190    2.9000 C.3   173  THR173      0.1794
    194  OG1       -1.7980   22.1810    1.6780 O.3   173  THR173     -0.2208
    195  CG2       -2.4170   24.1770    2.9320 C.3   173  THR173      0.0378
    196  N         -6.7290   27.9630   -0.0180 N.3   209  PHE209     -0.1227
    197  CA        -5.5580   28.0420   -0.8840 C.3   209  PHE209      0.1736
    198  C         -5.5790   26.9840   -1.9650 C.2   209  PHE209      0.2595
    199  O         -5.2620   27.2360   -3.1240 O.2   209  PHE209     -0.2718
    200  CB        -4.2550   27.9190   -0.0710 C.3   209  PHE209      0.0547
    201  CG        -3.0120   27.8440   -0.9390 C.ar  209  PHE209     -0.0202
    202  CD1       -2.4940   28.9930   -1.5460 C.ar  209  PHE209     -0.0042
    203  CD2       -2.3670   26.6320   -1.1640 C.ar  209  PHE209     -0.0042
    204  CE1       -1.3460   28.9140   -2.3880 C.ar  209  PHE209     -0.0003
    205  CE2       -1.2020   26.5600   -1.9650 C.ar  209  PHE209     -0.0003
    206  CZ        -0.7110   27.7100   -2.5760 C.ar  209  PHE209     -0.0000
    207  N         -5.9360   25.7740   -1.5650 N.am  210  GLN210     -0.1979
    208  CA        -5.8930   24.6560   -2.5050 C.3   210  GLN210      0.1601
    209  C         -7.0950   24.7010   -3.4620 C.2   210  GLN210      0.2287
    210  O         -6.9900   24.2980   -4.6220 O.2   210  GLN210     -0.2864
    211  CB        -5.8450   23.3490   -1.7020 C.3   210  GLN210      0.0394
    212  CG        -4.6640   23.2250   -0.7220 C.3   210  GLN210      0.0908
    213  CD        -3.3150   23.1000   -1.4290 C.2   210  GLN210      0.2608
    214  OE1       -2.2570   23.2250   -0.8140 O.2   210  GLN210     -0.2717
    215  NE2       -3.3540   22.8070   -2.7180 N.am  210  GLN210     -0.0878
@<TRIPOS>BOND
     1   128   127    2
     2   127   126    1
     3   114   115    1
     4   109   108    2
     5   115   116    1
     6   115   118    1
     7   126   125    1
     8   126   129    1
     9   116   125   am
    10   116   117    2
    11   108   107    1
    12   129   130    1
    13   118   119    1
    14   210   209    2
    15   107   110    1
    16   107   106    1
    17   110   111    1
    18   119   120    1
    19   130   131    1
    20   209   208    1
    21   111   113   ar
    22   111   112   ar
    23   199   198    2
    24   120   121    1
    25   124   122    1
    26   215   213   am
    27   121   122    2
    28   122   123    1
    29   131   132    1
    30   206   204   ar
    31   206   205   ar
    32   208   211    1
    33   208   207    1
    34   204   202   ar
    35    17    16    1
    36     4     3    2
    37    15    16    1
    38    15    14    1
    39   205   203   ar
    40   198   207   am
    41   198   197    1
    42     2     1    1
    43     2     3    1
    44   101   100    2
    45   211   212    1
    46    14    13    1
    47   105   103   ar
    48   202   201   ar
    49     3     5   am
    50   213   214    2
    51   213   212    1
    52   132   133    2
    53   203   201   ar
    54   100    99    1
    55   201   200    1
    56   197   200    1
    57   197   196    1
    58   103   104   ar
    59   103   102    1
    60     5     6    1
    61    13    10    1
    62   133   134    1
    63   133   135    1
    64   188   187    1
    65     9     7   am
    66     9    10    1
    67     6     7    1
    68    83    82    2
    69   102    99    1
    70     7     8    2
    71    99    98    1
    72    10    11    1
    73    87    85    1
    74   187   186    1
    75    86    85    1
    76   179   177   am
    77    91    90    2
    78    84    85    1
    79    84    81    1
    80    82    81    1
    81    98    90   am
    82   178   177    2
    83    81    80    1
    84   194   193    1
    85    90    89    1
    86   186   185    1
    87   177   176    1
    88    11    12    2
    89    11    18   am
    90   174   173    2
    91    73    72   ar
    92    73    71   ar
    93    18    19    1
    94    88    89    1
    95    89    92    1
    96   193   195    1
    97   193   190    1
    98   184   185    1
    99   184   181    1
   100    72    70   ar
   101    77    76    2
   102    80    76   am
   103   176   175    1
   104   173   172    1
   105    45    44    1
   106   172   175    1
   107   172   171    1
   108    76    75    1
   109    28    26    1
   110    34    33    1
   111    46    44    1
   112    71    69   ar
   113    33    35    1
   114    33    30    1
   115   183   182    2
   116    26    27    1
   117    26    25    2
   118    25    24    1
   119    23    24    1
   120    23    22    1
   121   182   189   am
   122   182   181    1
   123   190   189    1
   124   190   191    1
   125    29    30    1
   126    29    20   am
   127    44    43    2
   128    70    69   ar
   129    19    22    1
   130    19    20    1
   131    92    93    1
   132   181   180    1
   133    55    53   ar
   134    30    31    1
   135    67    66    2
   136    69    68    1
   137    79    78    1
   138    20    21    2
   139    75    78    1
   140    75    74    1
   141    95    93   ar
   142    95    97   ar
   143    93    94   ar
   144   191   192    2
   145    43    42    1
   146    66    65    1
   147    53    54   ar
   148    53    52    1
   149    31    36   am
   150    31    32    2
   151    68    65    1
   152   162   161    1
   153    97    96   ar
   154    94    96   ar
   155    36    37    1
   156    42    41    1
   157    65    64    1
   158    41    40    1
   159   159   158    2
   160    52    51    1
   161   167   166    2
   162    50    49    2
   163   161   163    1
   164   161   160    1
   165    40    37    1
   166    37    38    1
   167    59    58    2
   168    64    58   am
   169   166   165    1
   170   158   157    1
   171   158   164   am
   172   165   164    1
   173   165   168    1
   174    51    48    1
   175    58    57    1
   176    49    48    1
   177   157   160    1
   178   157   156    1
   179    48    47    1
   180    38    39    2
   181   169   168    1
   182   168   170    1
   183    57    56    1
   184    57    60    1
   185    62    60    1
   186    60    61    1
   187   147   146    2
   188   136   137    1
   189   155   154    2
   190   140   137    1
   191   140   141    1
   192    61    63    1
   193   146   145    1
   194   146   152   am
   195   150   148    1
   196   148   145    1
   197   148   149    1
   198   145   144    1
   199   143   141    1
   200   137   138    1
   201   154   153    1
   202   141   142    1
   203   152   153    1
   204   149   151    1
   205   138   139    2
