@<TRIPOS>MOLECULE
tmp/2j1uA00.pdb
 92 89 0 0 0
SMALL
GASTEIGER

@<TRIPOS>ATOM
      1  N         -5.9550   12.4760   13.8320 N.3    22  TYR22      -0.1241
      2  CA        -6.3690   13.8670   14.0820 C.3    22  TYR22       0.1605
      3  C         -5.2770   14.8680   13.8580 C.2    22  TYR22       0.2264
      4  O         -5.1660   15.8610   14.6030 O.2    22  TYR22      -0.2867
      5  CB        -6.8970   13.9950   15.4940 C.3    22  TYR22       0.0534
      6  CG        -8.0030   12.9790   15.8180 C.ar   22  TYR22      -0.0201
      7  CD1       -7.7600   11.9460   16.7090 C.ar   22  TYR22      -0.0009
      8  CD2       -9.2660   13.0910   15.2930 C.ar   22  TYR22      -0.0009
      9  CE1       -8.7500   11.0330   17.0360 C.ar   22  TYR22       0.0417
     10  CE2      -10.2890   12.1660   15.6280 C.ar   22  TYR22       0.0417
     11  CZ       -10.0090   11.1510   16.4890 C.ar   22  TYR22       0.1957
     12  OH       -10.9410   10.2140   16.8400 O.3    22  TYR22      -0.2866
     13  N         -5.3530   19.4780   23.4010 N.3    38  PHE38      -0.1227
     14  CA        -5.1660   18.9180   22.0750 C.3    38  PHE38       0.1736
     15  C         -5.6720   19.8430   20.9650 C.2    38  PHE38       0.2595
     16  O         -5.0890   19.9500   19.8900 O.2    38  PHE38      -0.2718
     17  CB        -5.9000   17.5620   21.9450 C.3    38  PHE38       0.0547
     18  CG        -5.7350   16.9760   20.5960 C.ar   38  PHE38      -0.0202
     19  CD1       -6.7080   17.1070   19.6350 C.ar   38  PHE38      -0.0042
     20  CD2       -4.5760   16.3580   20.2710 C.ar   38  PHE38      -0.0042
     21  CE1       -6.5100   16.6200   18.3800 C.ar   38  PHE38      -0.0003
     22  CE2       -4.3640   15.9000   18.9630 C.ar   38  PHE38      -0.0003
     23  CZ        -5.3450   16.0280   18.0540 C.ar   38  PHE38      -0.0000
     24  N         -6.7780   20.5260   21.2240 N.am   39  ASN39      -0.1974
     25  CA        -7.4540   21.3240   20.2200 C.3    39  ASN39       0.1688
     26  C         -6.6830   22.5910   19.8260 C.2    39  ASN39       0.2292
     27  O         -6.9420   23.1970   18.8070 O.2    39  ASN39      -0.2864
     28  CB        -8.8640   21.6370   20.6830 C.3    39  ASN39       0.1181
     29  CG        -9.6780   20.3640   20.8970 C.2    39  ASN39       0.2629
     30  OD1      -10.0080   19.6560   19.9530 O.2    39  ASN39      -0.2716
     31  ND2       -9.9400   20.0410   22.1570 N.am   39  ASN39      -0.0877
     32  N         -0.9150   12.6790   18.6240 N.3    45  HIS45      -0.1241
     33  CA        -1.9890   11.6960   18.6940 C.3    45  HIS45       0.1621
     34  C         -1.7130   10.5860   17.7140 C.2    45  HIS45       0.2264
     35  O         -1.5780   10.8280   16.5350 O.2    45  HIS45      -0.2867
     36  CB        -3.3060   12.3770   18.3460 C.3    45  HIS45       0.0745
     37  CG        -4.5070   11.7700   18.9780 C.ar   45  HIS45       0.0817
     38  ND1       -4.9560   10.4990   18.6840 N.ar   45  HIS45      -0.2268
     39  CD2       -5.4120   12.3010   19.8450 C.ar   45  HIS45       0.1154
     40  CE1       -6.0720   10.2660   19.3660 C.ar   45  HIS45       0.1986
     41  NE2       -6.3690   11.3410   20.0800 N.ar   45  HIS45      -0.2212
     42  N         -1.2980   15.2710   27.6960 N.3    72  ARG72      -0.1245
     43  CA        -2.5090   15.9130   27.2610 C.3    72  ARG72       0.1563
     44  C         -3.2470   16.2820   28.5450 C.2    72  ARG72       0.2260
     45  O         -3.1870   15.5490   29.5470 O.2    72  ARG72      -0.2867
     46  CB        -3.3500   14.9430   26.4700 C.3    72  ARG72       0.0307
     47  CG        -4.5260   15.6000   25.8220 C.3    72  ARG72       0.0489
     48  CD        -5.3500   14.6580   24.9080 C.3    72  ARG72       0.2205
     49  NE        -6.5950   15.3060   24.5390 N.pl3  72  ARG72      -0.0865
     50  CZ        -7.5380   14.7550   23.7730 C.cat  72  ARG72       0.5346
     51  NH1       -7.4050   13.5170   23.3190 N.pl3  72  ARG72       0.1354
     52  NH2       -8.6590   15.4170   23.5140 N.pl3  72  ARG72       0.1354
     53  N         -6.5660   18.3670   28.2180 N.3    74  ASP74      -0.1225
     54  CA        -7.9640   18.7260   28.0320 C.3    74  ASP74       0.1805
     55  C         -8.9210   17.5320   28.2340 C.2    74  ASP74       0.2598
     56  O        -10.1020   17.6890   28.6390 O.2    74  ASP74      -0.2718
     57  CB        -8.2160   19.3630   26.6850 C.3    74  ASP74       0.1424
     58  CG        -7.9430   18.4320   25.5510 C.2    74  ASP74       0.3668
     59  OD1       -8.9240   18.0800   24.8500 O.co2  74  ASP74      -0.2456
     60  OD2       -6.7830   18.0130   25.3140 O.co2  74  ASP74      -0.2456
     61  N         -8.4150   16.3350   27.9740 N.am   75  ALA75      -0.1966
     62  CA        -9.2350   15.1260   27.9760 C.3    75  ALA75       0.1728
     63  C         -8.3490   13.8760   27.9770 C.2    75  ALA75       0.2616
     64  O         -7.2220   13.9390   27.5620 O.2    75  ALA75      -0.2715
     65  CB       -10.0420   15.0720   26.7810 C.3    75  ALA75       0.0334
     66  N         -8.9310   12.7490   28.4020 N.am   76  GLU76      -0.1977
     67  CA        -8.3330   11.4220   28.2220 C.3    76  GLU76       0.1602
     68  C         -6.9120   11.3190   28.8220 C.2    76  GLU76       0.2287
     69  O         -6.0420   10.5940   28.3210 O.2    76  GLU76      -0.2864
     70  CB        -8.3480   11.0390   26.7620 C.3    76  GLU76       0.0415
     71  CG        -9.7050   11.0330   26.1000 C.3    76  GLU76       0.1163
     72  CD       -10.5350    9.7900   26.3500 C.2    76  GLU76       0.3649
     73  OE1      -10.2180    8.9790   27.2630 O.co2  76  GLU76      -0.2457
     74  OE2      -11.5260    9.6470   25.5690 O.co2  76  GLU76      -0.2457
     75  N         -4.9250    8.0710   29.4830 N.3    79  ARG79      -0.1245
     76  CA        -4.2950    7.3140   28.4210 C.3    79  ARG79       0.1563
     77  C         -2.7920    7.1910   28.6470 C.2    79  ARG79       0.2260
     78  O         -2.1930    6.1890   28.2520 O.2    79  ARG79      -0.2867
     79  CB        -4.5770    7.9320   27.0580 C.3    79  ARG79       0.0307
     80  CG        -5.9800    7.7040   26.5620 C.3    79  ARG79       0.0489
     81  CD        -6.2500    8.3050   25.1930 C.3    79  ARG79       0.2205
     82  NE        -7.5620    7.8420   24.7380 N.pl3  79  ARG79      -0.0865
     83  CZ        -8.2510    8.4050   23.7450 C.cat  79  ARG79       0.5346
     84  NH1       -7.7500    9.4540   23.0690 N.pl3  79  ARG79       0.1354
     85  NH2       -9.4240    7.9270   23.4220 N.pl3  79  ARG79       0.1354
     86  N         -4.6910    5.2340   22.0890 N.3   130  PRO130     -0.2116
     87  CA        -3.8800    6.2730   21.4610 C.3   130  PRO130      0.1372
     88  C         -2.9030    6.9070   22.4270 C.2   130  PRO130      0.2244
     89  O         -3.2160    7.0830   23.5900 O.2   130  PRO130     -0.2868
     90  CB        -4.9170    7.3340   21.0600 C.3   130  PRO130      0.0268
     91  CG        -6.1210    6.6350   20.9430 C.3   130  PRO130      0.0207
     92  CD        -6.1230    5.5680   22.0370 C.3   130  PRO130      0.0892
@<TRIPOS>BOND
     1     1     2    1
     2     3     2    1
     3     3     4    2
     4     2     5    1
     5     8    10   ar
     6     8     6   ar
     7     5     6    1
     8    10    11   ar
     9     6     7   ar
    10    11    12    1
    11    11     9   ar
    12    35    34    2
    13     7     9   ar
    14    34    33    1
    15    23    21   ar
    16    23    22   ar
    17    36    33    1
    18    36    37    1
    19    21    19   ar
    20    32    33    1
    21    38    37   ar
    22    38    40   ar
    23    27    26    2
    24    22    20   ar
    25    37    39   ar
    26    40    41   ar
    27    19    18   ar
    28    26    25    1
    29    39    41   ar
    30    16    15    2
    31    30    29    2
    32    25    28    1
    33    25    24    1
    34    20    18   ar
    35    18    17    1
    36    28    29    1
    37    29    31   am
    38    91    90    1
    39    91    92    1
    40    15    24   am
    41    15    14    1
    42    90    87    1
    43    87    86    1
    44    87    88    1
    45    17    14    1
    46    92    86    1
    47    14    13    1
    48    88    89    2
    49    84    83    1
    50    51    50    1
    51    85    83    1
    52    52    50    1
    53    83    82    2
    54    50    49    2
    55    49    48    1
    56    82    81    1
    57    59    58   ar
    58    48    47    1
    59    81    80    1
    60    60    58   ar
    61    58    57    1
    62    74    72   ar
    63    47    46    1
    64    71    72    1
    65    71    70    1
    66    72    73   ar
    67    46    43    1
    68    80    79    1
    69    57    54    1
    70    70    67    1
    71    65    62    1
    72    79    76    1
    73    43    42    1
    74    43    44    1
    75    64    63    2
    76    61    62    1
    77    61    55   am
    78    62    63    1
    79    63    66   am
    80    54    53    1
    81    54    55    1
    82    67    66    1
    83    67    68    1
    84    55    56    2
    85    78    77    2
    86    69    68    2
    87    76    77    1
    88    76    75    1
    89    44    45    2
