@<TRIPOS>MOLECULE
tmp/2j1vA00.pdb
 92 89 0 0 0
SMALL
GASTEIGER

@<TRIPOS>ATOM
      1  N         -5.9880   12.4830   13.8400 N.3    22  TYR22      -0.1241
      2  CA        -6.3590   13.8680   14.1310 C.3    22  TYR22       0.1605
      3  C         -5.2480   14.8770   13.8680 C.2    22  TYR22       0.2264
      4  O         -5.1730   15.9100   14.5390 O.2    22  TYR22      -0.2867
      5  CB        -6.8870   13.9820   15.5470 C.3    22  TYR22       0.0534
      6  CG        -8.0850   13.1140   15.8200 C.ar   22  TYR22      -0.0201
      7  CD1       -7.9660   11.9230   16.5410 C.ar   22  TYR22      -0.0009
      8  CD2       -9.3520   13.4940   15.3950 C.ar   22  TYR22      -0.0009
      9  CE1       -9.0850   11.1110   16.8110 C.ar   22  TYR22       0.0417
     10  CE2      -10.4880   12.6950   15.6880 C.ar   22  TYR22       0.0417
     11  CZ       -10.3280   11.5070   16.3800 C.ar   22  TYR22       0.1957
     12  OH       -11.4730   10.7390   16.6400 O.3    22  TYR22      -0.2866
     13  N         -5.3360   19.3700   23.4340 N.3    38  PHE38      -0.1227
     14  CA        -5.2010   18.8640   22.0900 C.3    38  PHE38       0.1736
     15  C         -5.6630   19.8060   21.0060 C.2    38  PHE38       0.2595
     16  O         -5.0520   19.8750   19.9330 O.2    38  PHE38      -0.2718
     17  CB        -5.8870   17.4960   21.9480 C.3    38  PHE38       0.0547
     18  CG        -5.6620   16.8860   20.6160 C.ar   38  PHE38      -0.0202
     19  CD1       -6.5800   17.0960   19.5990 C.ar   38  PHE38      -0.0042
     20  CD2       -4.4550   16.3160   20.2900 C.ar   38  PHE38      -0.0042
     21  CE1       -6.3520   16.6400   18.3550 C.ar   38  PHE38      -0.0003
     22  CE2       -4.2120   15.8490   18.9990 C.ar   38  PHE38      -0.0003
     23  CZ        -5.1660   16.0380   18.0220 C.ar   38  PHE38      -0.0000
     24  N         -6.7500   20.5070   21.2600 N.am   39  ASN39      -0.1974
     25  CA        -7.3200   21.3780   20.2360 C.3    39  ASN39       0.1688
     26  C         -6.4840   22.6330   19.9580 C.2    39  ASN39       0.2292
     27  O         -6.7430   23.2840   18.9480 O.2    39  ASN39      -0.2864
     28  CB        -8.8260   21.6690   20.4880 C.3    39  ASN39       0.1181
     29  CG        -9.7570   20.4510   20.1220 C.2    39  ASN39       0.2629
     30  OD1       -9.4440   19.6230   19.2400 O.2    39  ASN39      -0.2716
     31  ND2      -10.8860   20.3640   20.7980 N.am   39  ASN39      -0.0877
     32  N         -0.8120   12.6210   18.5690 N.3    45  HIS45      -0.1241
     33  CA        -1.9360   11.6680   18.6160 C.3    45  HIS45       0.1621
     34  C         -1.7150   10.5670   17.6000 C.2    45  HIS45       0.2264
     35  O         -1.6040   10.8250   16.4000 O.2    45  HIS45      -0.2867
     36  CB        -3.2420   12.3620   18.3150 C.3    45  HIS45       0.0745
     37  CG        -4.4820   11.7330   18.8800 C.ar   45  HIS45       0.0817
     38  ND1       -5.0060   10.5490   18.4480 N.ar   45  HIS45      -0.2268
     39  CD2       -5.2810   12.1200   19.9000 C.ar   45  HIS45       0.1154
     40  CE1       -6.1650   10.3190   19.0630 C.ar   45  HIS45       0.1986
     41  NE2       -6.3760   11.2910   19.9090 N.ar   45  HIS45      -0.2212
     42  N         -1.1540   15.1090   27.6740 N.3    72  ARG72      -0.1245
     43  CA        -2.4160   15.7510   27.3160 C.3    72  ARG72       0.1563
     44  C         -3.1630   16.1290   28.5980 C.2    72  ARG72       0.2260
     45  O         -3.1130   15.3910   29.5990 O.2    72  ARG72      -0.2867
     46  CB        -3.2710   14.7870   26.4840 C.3    72  ARG72       0.0307
     47  CG        -4.5510   15.3980   25.9330 C.3    72  ARG72       0.0489
     48  CD        -5.3370   14.5230   24.9950 C.3    72  ARG72       0.2205
     49  NE        -6.5560   15.2160   24.5330 N.pl3  72  ARG72      -0.0865
     50  CZ        -7.4680   14.7170   23.7380 C.cat  72  ARG72       0.5346
     51  NH1       -7.3980   13.4560   23.2950 N.pl3  72  ARG72       0.1354
     52  NH2       -8.5140   15.4630   23.4280 N.pl3  72  ARG72       0.1354
     53  N         -6.5360   18.1870   28.3250 N.3    74  ASP74      -0.1225
     54  CA        -7.9580   18.5380   28.1780 C.3    74  ASP74       0.1805
     55  C         -8.9220   17.4060   28.3550 C.2    74  ASP74       0.2598
     56  O        -10.0570   17.6390   28.8140 O.2    74  ASP74      -0.2718
     57  CB        -8.2450   19.2060   26.8560 C.3    74  ASP74       0.1424
     58  CG        -7.9450   18.3180   25.6990 C.2    74  ASP74       0.3668
     59  OD1       -8.8680   17.9520   24.9330 O.co2  74  ASP74      -0.2456
     60  OD2       -6.7620   17.9400   25.4740 O.co2  74  ASP74      -0.2456
     61  N         -8.4810   16.1920   28.0010 N.am   75  ALA75      -0.1966
     62  CA        -9.3280   15.0140   28.0250 C.3    75  ALA75       0.1728
     63  C         -8.4590   13.7570   27.9360 C.2    75  ALA75       0.2616
     64  O         -7.3150   13.8310   27.4750 O.2    75  ALA75      -0.2715
     65  CB       -10.2870   15.0350   26.8810 C.3    75  ALA75       0.0334
     66  N         -9.0380   12.6180   28.3270 N.am   76  GLU76      -0.1977
     67  CA        -8.4380   11.2870   28.1060 C.3    76  GLU76       0.1602
     68  C         -7.0280   11.2120   28.7220 C.2    76  GLU76       0.2287
     69  O         -6.1420   10.5490   28.1750 O.2    76  GLU76      -0.2864
     70  CB        -8.3960   10.9360   26.6100 C.3    76  GLU76       0.0415
     71  CG        -9.7190   10.9650   25.8580 C.3    76  GLU76       0.1163
     72  CD       -10.7340    9.9610   26.3540 C.2    76  GLU76       0.3649
     73  OE1      -10.4270    9.1590   27.2510 O.co2  76  GLU76      -0.2457
     74  OE2      -11.8890    9.9580   25.8280 O.co2  76  GLU76      -0.2457
     75  N         -4.9830    7.8960   29.3230 N.3    79  ARG79      -0.1245
     76  CA        -4.3280    7.1420   28.2790 C.3    79  ARG79       0.1563
     77  C         -2.8320    7.0170   28.5290 C.2    79  ARG79       0.2260
     78  O         -2.2040    6.0280   28.1220 O.2    79  ARG79      -0.2867
     79  CB        -4.5800    7.7170   26.9120 C.3    79  ARG79       0.0307
     80  CG        -6.0430    7.5550   26.4300 C.3    79  ARG79       0.0489
     81  CD        -6.2950    8.2080   25.0660 C.3    79  ARG79       0.2205
     82  NE        -7.6090    7.8660   24.5530 N.pl3  79  ARG79      -0.0865
     83  CZ        -8.2330    8.5100   23.5810 C.cat  79  ARG79       0.5346
     84  NH1       -7.7000    9.5730   22.9820 N.pl3  79  ARG79       0.1354
     85  NH2       -9.4320    8.0860   23.1830 N.pl3  79  ARG79       0.1354
     86  N         -4.7680    5.1380   21.9240 N.3   130  PRO130     -0.2116
     87  CA        -3.9390    6.1960   21.3100 C.3   130  PRO130      0.1372
     88  C         -2.9370    6.8010   22.2910 C.2   130  PRO130      0.2244
     89  O         -3.2330    7.0360   23.4830 O.2   130  PRO130     -0.2868
     90  CB        -4.9600    7.2590   20.9170 C.3   130  PRO130      0.0268
     91  CG        -6.2550    6.4110   20.7640 C.3   130  PRO130      0.0207
     92  CD        -6.2130    5.4980   21.9770 C.3   130  PRO130      0.0892
@<TRIPOS>BOND
     1     1     2    1
     2     3     2    1
     3     3     4    2
     4     2     5    1
     5     8    10   ar
     6     8     6   ar
     7     5     6    1
     8    10    11   ar
     9     6     7   ar
    10    11    12    1
    11    11     9   ar
    12    35    34    2
    13     7     9   ar
    14    34    33    1
    15    23    21   ar
    16    23    22   ar
    17    36    33    1
    18    36    37    1
    19    21    19   ar
    20    38    37   ar
    21    38    40   ar
    22    32    33    1
    23    37    39   ar
    24    27    26    2
    25    22    20   ar
    26    40    41   ar
    27    30    29    2
    28    19    18   ar
    29    39    41   ar
    30    16    15    2
    31    26    25    1
    32    29    28    1
    33    29    31   am
    34    25    28    1
    35    25    24    1
    36    20    18   ar
    37    18    17    1
    38    91    90    1
    39    91    92    1
    40    90    87    1
    41    15    24   am
    42    15    14    1
    43    87    86    1
    44    87    88    1
    45    86    92    1
    46    17    14    1
    47    14    13    1
    48    88    89    2
    49    84    83    1
    50    85    83    1
    51    51    50    1
    52    52    50    1
    53    83    82    2
    54    50    49    2
    55    49    48    1
    56    82    81    1
    57    59    58   ar
    58    48    47    1
    59    81    80    1
    60    60    58   ar
    61    58    57    1
    62    74    72   ar
    63    71    72    1
    64    71    70    1
    65    47    46    1
    66    72    73   ar
    67    80    79    1
    68    46    43    1
    69    70    67    1
    70    57    54    1
    71    65    62    1
    72    79    76    1
    73    43    42    1
    74    43    44    1
    75    64    63    2
    76    63    62    1
    77    63    66   am
    78    61    62    1
    79    61    55   am
    80    67    66    1
    81    67    68    1
    82    78    77    2
    83    69    68    2
    84    54    53    1
    85    54    55    1
    86    76    77    1
    87    76    75    1
    88    55    56    2
    89    44    45    2
