@<TRIPOS>MOLECULE
tmp/2j2iA00.pdb
 187 175 0 0 0
SMALL
GASTEIGER

@<TRIPOS>ATOM
      1  N         41.6930    4.9710   -2.7280 N.3    12  LEU12      -0.1231
      2  CA        42.1880    3.6380   -3.0930 C.3    12  LEU12       0.1693
      3  C         41.1150    2.8260   -3.8360 C.2    12  LEU12       0.2592
      4  O         41.4240    2.0300   -4.7180 O.2    12  LEU12      -0.2718
      5  CB        42.6510    2.8540   -1.8560 C.3    12  LEU12       0.0284
      6  CG        43.8820    3.3550   -1.0910 C.3    12  LEU12       0.0019
      7  CD1       43.9680    2.6850    0.2840 C.3    12  LEU12       0.0001
      8  CD2       45.1660    3.1310   -1.8930 C.3    12  LEU12       0.0001
      9  N         39.8560    3.0210   -3.4690 N.am   13  GLY13      -0.1957
     10  CA        38.7480    2.3760   -4.1780 C.3    13  GLY13       0.1869
     11  C         37.4280    2.7190   -3.5250 C.2    13  GLY13       0.2309
     12  O         37.4020    3.3000   -2.4570 O.2    13  GLY13      -0.2863
     13  N         31.6990   -1.7440   -0.0430 N.3    17  PHE17      -0.1241
     14  CA        32.4020   -1.5050    1.2230 C.3    17  PHE17       0.1605
     15  C         32.5220   -0.0090    1.6010 C.2    17  PHE17       0.2264
     16  O         33.1190    0.3100    2.6280 O.2    17  PHE17      -0.2867
     17  CB        33.8330   -2.0870    1.1320 C.3    17  PHE17       0.0534
     18  CG        34.5790   -1.6470   -0.0940 C.ar   17  PHE17      -0.0203
     19  CD1       35.2300   -0.4120   -0.1260 C.ar   17  PHE17      -0.0042
     20  CD2       34.6150   -2.4430   -1.2320 C.ar   17  PHE17      -0.0042
     21  CE1       35.8900    0.0200   -1.2670 C.ar   17  PHE17      -0.0003
     22  CE2       35.2740   -2.0120   -2.3760 C.ar   17  PHE17      -0.0003
     23  CZ        35.9280   -0.7830   -2.3830 C.ar   17  PHE17      -0.0000
     24  N         37.3610    4.0700    0.3330 N.3    20  VAL20      -0.1245
     25  CA        38.5940    3.9020    1.0930 C.3    20  VAL20       0.1561
     26  C         39.7050    4.7780    0.5160 C.2    20  VAL20       0.2260
     27  O         39.9900    4.7220   -0.6960 O.2    20  VAL20      -0.2867
     28  CB        39.0450    2.4240    1.1550 C.3    20  VAL20       0.0252
     29  CG1       40.2490    2.2810    2.0770 C.3    20  VAL20       0.0019
     30  CG2       37.8730    1.5100    1.6320 C.3    20  VAL20       0.0019
     31  N         44.7570    3.0610    5.9730 N.3    33  ALA33      -0.1245
     32  CA        43.6310    3.1480    5.0540 C.3    33  ALA33       0.1562
     33  C         42.4730    3.7090    5.8610 C.2    33  ALA33       0.2260
     34  O         42.2820    3.3440    7.0200 O.2    33  ALA33      -0.2867
     35  CB        43.2780    1.7560    4.4700 C.3    33  ALA33       0.0290
     36  N         38.4920    4.2240    5.7800 N.3    35  LYS35      -0.1245
     37  CA        37.2730    3.6870    5.1690 C.3    35  LYS35       0.1561
     38  C         36.0370    4.4180    5.6950 C.2    35  LYS35       0.2260
     39  O         35.7870    4.4290    6.9100 O.2    35  LYS35      -0.2867
     40  CB        37.1750    2.1870    5.4900 C.3    35  LYS35       0.0271
     41  CG        35.9700    1.4510    4.9170 C.3    35  LYS35       0.0035
     42  CD        35.9870   -0.0180    5.3880 C.3    35  LYS35       0.0206
     43  CE        35.0300   -0.8950    4.5860 C.3    35  LYS35       0.1093
     44  NZ        33.5900   -0.6940    4.9730 N.3    35  LYS35      -0.1314
     45  N         30.5410   -4.5000   11.2210 N.3    57  GLU57      -0.1245
     46  CA        31.9180   -4.5370   10.7400 C.3    57  GLU57       0.1567
     47  C         32.9120   -4.1460   11.8470 C.2    57  GLU57       0.2260
     48  O         33.9670   -4.7660   11.9730 O.2    57  GLU57      -0.2867
     49  CB        32.1000   -3.6510    9.5050 C.3    57  GLU57       0.0388
     50  CG        33.4600   -3.7340    8.8550 C.3    57  GLU57       0.1160
     51  CD        33.6090   -2.7920    7.6620 C.2    57  GLU57       0.3649
     52  OE1       32.7340   -1.9390    7.4300 O.co2  57  GLU57      -0.2457
     53  OE2       34.6200   -2.8830    6.9590 O.co2  57  GLU57      -0.2457
     54  N         44.0880   -7.4820    8.2330 N.3    72  ILE72      -0.1245
     55  CA        44.2950   -6.0330    8.3630 C.3    72  ILE72       0.1561
     56  C         43.5650   -5.5620    9.6330 C.2    72  ILE72       0.2260
     57  O         42.3670   -5.7980    9.8000 O.2    72  ILE72      -0.2867
     58  CB        43.8140   -5.2450    7.1080 C.3    72  ILE72       0.0252
     59  CG1       44.7510   -5.4780    5.9170 C.3    72  ILE72       0.0019
     60  CG2       43.6820   -3.6990    7.3960 C.3    72  ILE72       0.0019
     61  CD1       46.2330   -5.0730    6.1530 C.3    72  ILE72       0.0001
     62  N         42.3760    1.6850    9.2670 N.3    88  LEU88      -0.1231
     63  CA        42.9230    0.3450    9.1190 C.3    88  LEU88       0.1693
     64  C         44.4050    0.4010    8.7870 C.2    88  LEU88       0.2592
     65  O         44.8790    1.3830    8.2240 O.2    88  LEU88      -0.2718
     66  CB        42.1960   -0.3730    7.9890 C.3    88  LEU88       0.0284
     67  CG        40.6930   -0.4400    8.2740 C.3    88  LEU88       0.0019
     68  CD1       39.8530   -0.1620    7.0450 C.3    88  LEU88       0.0001
     69  CD2       40.3500   -1.7460    8.9330 C.3    88  LEU88       0.0001
     70  N         45.1150   -0.6810    9.1010 N.am   89  GLU89      -0.1966
     71  CA        46.4960   -0.8550    8.6500 C.3    89  GLU89       0.1733
     72  C         46.5630   -0.8090    7.1400 C.2    89  GLU89       0.2616
     73  O         45.6200   -1.1950    6.4640 O.2    89  GLU89      -0.2715
     74  CB        47.0450   -2.2090    9.0800 C.3    89  GLU89       0.0429
     75  CG        47.1500   -2.4250   10.5450 C.3    89  GLU89       0.1163
     76  CD        47.7890   -3.7630   10.8300 C.2    89  GLU89       0.3649
     77  OE1       47.2150   -4.7860   10.4040 O.co2  89  GLU89      -0.2457
     78  OE2       48.8880   -3.7900   11.4310 O.co2  89  GLU89      -0.2457
     79  N         47.6930   -0.3530    6.6260 N.am   90  ARG90      -0.1964
     80  CA        47.9720   -0.3650    5.1950 C.3    90  ARG90       0.1714
     81  C         49.4100   -0.8330    5.0100 C.2    90  ARG90       0.2458
     82  O         50.3480   -0.1270    5.3990 O.2    90  ARG90      -0.2730
     83  CB        47.7830    1.0270    4.5610 C.3    90  ARG90       0.0347
     84  CG        48.1590    1.0930    3.0680 C.3    90  ARG90       0.0492
     85  CD        47.7000    2.3860    2.3820 C.3    90  ARG90       0.2205
     86  NE        48.3080    3.5840    2.9800 N.pl3  90  ARG90      -0.0865
     87  CZ        49.4730    4.1150    2.6200 C.cat  90  ARG90       0.5346
     88  NH1       50.2180    3.5700    1.6640 N.pl3  90  ARG90       0.1354
     89  NH2       49.9130    5.2050    3.2350 N.pl3  90  ARG90       0.1354
     90  N         49.5910   -2.0400    4.4310 N.am   91  PRO91      -0.2716
     91  CA        50.9590   -2.4410    4.1150 C.3    91  PRO91       0.1536
     92  C         51.4840   -1.6410    2.9330 C.2    91  PRO91       0.2598
     93  O         50.7070   -1.1170    2.1230 O.2    91  PRO91      -0.2715
     94  CB        50.8360   -3.9360    3.7510 C.3    91  PRO91       0.0310
     95  CG        49.4060   -4.3260    4.0410 C.3    91  PRO91       0.0237
     96  CD        48.6110   -3.0650    4.0310 C.3    91  PRO91       0.0939
     97  N         52.8010   -1.5590    2.8460 N.am   92  GLU92      -0.1978
     98  CA        53.4470   -0.8690    1.7460 C.3    92  GLU92       0.1602
     99  C         54.8050   -1.5240    1.5220 C.2    92  GLU92       0.2287
    100  O         55.5490   -1.7730    2.4730 O.2    92  GLU92      -0.2864
    101  CB        53.5740    0.6420    2.0200 C.3    92  GLU92       0.0415
    102  CG        54.4230    1.4530    0.9950 C.3    92  GLU92       0.1163
    103  CD        53.8050    1.5830   -0.4110 C.2    92  GLU92       0.3649
    104  OE1       52.5700    1.5380   -0.5510 O.co2  92  GLU92      -0.2457
    105  OE2       54.5700    1.7440   -1.3880 O.co2  92  GLU92      -0.2457
    106  N         52.0820   -2.9070   -1.4510 N.3    94  VAL94      -0.1231
    107  CA        51.0120   -3.8890   -1.3850 C.3    94  VAL94       0.1692
    108  C         50.3560   -4.0480   -2.7590 C.2    94  VAL94       0.2592
    109  O         50.3750   -3.1210   -3.5830 O.2    94  VAL94      -0.2718
    110  CB        49.9630   -3.4880   -0.3200 C.3    94  VAL94       0.0266
    111  CG1       49.2110   -2.2310   -0.7520 C.3    94  VAL94       0.0020
    112  CG2       49.0130   -4.6220   -0.0660 C.3    94  VAL94       0.0020
    113  N         49.8280   -5.2480   -2.9990 N.am   95  GLN95      -0.1966
    114  CA        48.9820   -5.5430   -4.1530 C.3    95  GLN95       0.1733
    115  C         47.9490   -6.5880   -3.7400 C.2    95  GLN95       0.2616
    116  O         48.2810   -7.5430   -3.0110 O.2    95  GLN95      -0.2715
    117  CB        49.7940   -6.1060   -5.3080 C.3    95  GLN95       0.0408
    118  CG        49.0140   -6.1570   -6.6260 C.3    95  GLN95       0.0908
    119  CD        49.8550   -6.6250   -7.7870 C.2    95  GLN95       0.2608
    120  OE1       50.7360   -7.4570   -7.6250 O.2    95  GLN95      -0.2717
    121  NE2       49.5780   -6.0970   -8.9710 N.am   95  GLN95      -0.0878
    122  N         46.7130   -6.4370   -4.2020 N.am   96  ASP96      -0.1971
    123  CA        45.7170   -7.4580   -3.9020 C.3    96  ASP96       0.1709
    124  C         45.9640   -8.6770   -4.7880 C.2    96  ASP96       0.2293
    125  O         46.6480   -8.6000   -5.8080 O.2    96  ASP96      -0.2864
    126  CB        44.2680   -6.9600   -3.9330 C.3    96  ASP96       0.1436
    127  CG        43.7580   -6.6230   -5.3250 C.2    96  ASP96       0.3671
    128  OD1       43.2410   -5.5030   -5.4650 O.co2  96  ASP96      -0.2456
    129  OD2       43.8280   -7.4580   -6.2530 O.co2  96  ASP96      -0.2456
    130  N         44.6440   -8.6030   -8.5880 N.3    99  ASP99      -0.1239
    131  CA        45.5840   -7.9120   -9.4740 C.3    99  ASP99       0.1674
    132  C         46.8480   -8.7220   -9.7260 C.2    99  ASP99       0.2266
    133  O         47.3670   -8.7260  -10.8380 O.2    99  ASP99      -0.2867
    134  CB        45.9930   -6.5670   -8.8790 C.3    99  ASP99       0.1410
    135  CG        44.8920   -5.5230   -8.9560 C.2    99  ASP99       0.3668
    136  OD1       43.8130   -5.7850   -9.5580 O.co2  99  ASP99      -0.2456
    137  OD2       45.1300   -4.4240   -8.4120 O.co2  99  ASP99      -0.2456
    138  N         37.9950  -14.2750   -0.9690 N.3   137  LYS137     -0.1245
    139  CA        38.2380  -14.2480   -2.4150 C.3   137  LYS137      0.1561
    140  C         39.5100  -13.4500   -2.6760 C.2   137  LYS137      0.2260
    141  O         39.9660  -12.6860   -1.8080 O.2   137  LYS137     -0.2867
    142  CB        37.0520  -13.6060   -3.1860 C.3   137  LYS137      0.0271
    143  CG        36.7430  -12.1860   -2.8130 C.3   137  LYS137      0.0035
    144  CD        35.7210  -11.5800   -3.7510 C.3   137  LYS137      0.0206
    145  CE        35.2460  -10.2250   -3.2520 C.3   137  LYS137      0.1093
    146  NZ        34.4020   -9.4770   -4.2690 N.3   137  LYS137     -0.1314
    147  N         40.1770  -10.7840   -4.3250 N.3   139  GLU139     -0.1231
    148  CA        40.0200   -9.3360   -4.1350 C.3   139  GLU139      0.1699
    149  C         40.1290   -8.8550   -2.6930 C.2   139  GLU139      0.2592
    150  O         40.3960   -7.6760   -2.4610 O.2   139  GLU139     -0.2718
    151  CB        38.6550   -8.8720   -4.6480 C.3   139  GLU139      0.0402
    152  CG        38.4970   -8.9560   -6.1330 C.3   139  GLU139      0.1161
    153  CD        37.1690   -8.3930   -6.5660 C.2   139  GLU139      0.3649
    154  OE1       37.1080   -7.1750   -6.8250 O.co2 139  GLU139     -0.2457
    155  OE2       36.2050   -9.1700   -6.6430 O.co2 139  GLU139     -0.2457
    156  N         39.8740   -9.7570   -1.7440 N.am  140  ASN140     -0.1974
    157  CA        39.9080   -9.4500   -0.3160 C.3   140  ASN140      0.1688
    158  C         41.1640   -9.9820    0.4070 C.2   140  ASN140      0.2292
    159  O         41.1750  -10.1330    1.6350 O.2   140  ASN140     -0.2864
    160  CB        38.6180   -9.9680    0.3410 C.3   140  ASN140      0.1181
    161  CG        37.3950   -9.1400   -0.0320 C.2   140  ASN140      0.2629
    162  OD1       37.5230   -7.9710   -0.3820 O.2   140  ASN140     -0.2716
    163  ND2       36.2120   -9.7550    0.0040 N.am  140  ASN140     -0.0877
    164  N         45.2890   -9.0820    0.5420 N.3   142  LEU142     -0.1245
    165  CA        46.3760   -8.1780    0.2040 C.3   142  LEU142      0.1561
    166  C         47.7070   -8.9050    0.3980 C.2   142  LEU142      0.2260
    167  O         47.8680   -9.6490    1.3750 O.2   142  LEU142     -0.2867
    168  CB        46.3350   -6.9350    1.1010 C.3   142  LEU142      0.0270
    169  CG        45.1030   -6.0220    1.0170 C.3   142  LEU142      0.0019
    170  CD1       45.2850   -4.8050    1.9170 C.3   142  LEU142      0.0001
    171  CD2       44.8800   -5.5820   -0.4380 C.3   142  LEU142      0.0001
    172  N         41.0820   -8.5930    4.0930 N.3   153  ILE153     -0.1231
    173  CA        40.3520   -7.3350    4.2100 C.3   153  ILE153      0.1692
    174  C         38.8550   -7.5420    3.9770 C.2   153  ILE153      0.2592
    175  O         38.4320   -8.5660    3.4430 O.2   153  ILE153     -0.2718
    176  CB        40.8820   -6.2340    3.2280 C.3   153  ILE153      0.0266
    177  CG1       40.8050   -6.7230    1.7760 C.3   153  ILE153      0.0019
    178  CG2       42.3020   -5.8480    3.5920 C.3   153  ILE153      0.0020
    179  CD1       41.0590   -5.6710    0.7140 C.3   153  ILE153      0.0001
    180  N         38.0940   -6.5280    4.3870 N.am  154  ASP154     -0.1974
    181  CA        36.6680   -6.3640    4.1520 C.3   154  ASP154      0.1709
    182  C         35.8130   -7.3580    4.9190 C.2   154  ASP154      0.2293
    183  O         35.3590   -8.3610    4.3640 O.2   154  ASP154     -0.2864
    184  CB        36.3120   -6.3610    2.6560 C.3   154  ASP154      0.1436
    185  CG        34.9030   -5.8260    2.3890 C.2   154  ASP154      0.3671
    186  OD1       34.1620   -5.5280    3.3460 O.co2 154  ASP154     -0.2456
    187  OD2       34.5310   -5.6830    1.2020 O.co2 154  ASP154     -0.2456
@<TRIPOS>BOND
     1   133   132    2
     2   132   131    1
     3   136   135   ar
     4   131   134    1
     5   131   130    1
     6   121   119   am
     7   135   134    1
     8   135   137   ar
     9   119   120    2
    10   119   118    1
    11   154   153   ar
    12   155   153   ar
    13   118   117    1
    14   153   152    1
    15   129   127   ar
    16   152   151    1
    17   125   124    2
    18   128   127   ar
    19   127   126    1
    20   117   114    1
    21   124   123    1
    22     4     3    2
    23   151   148    1
    24   147   148    1
    25   146   145    1
    26   122   123    1
    27   122   115   am
    28    10    11    1
    29    10     9    1
    30   114   115    1
    31   114   113    1
    32   148   149    1
    33   126   123    1
    34     3     9   am
    35     3     2    1
    36   144   145    1
    37   144   143    1
    38   115   116    2
    39   109   108    2
    40    11    12    2
    41   142   143    1
    42   142   139    1
    43     2     1    1
    44     2     5    1
    45   113   108   am
    46   108   107    1
    47   149   150    2
    48   149   156   am
    49   140   139    1
    50   140   141    2
    51   139   138    1
    52    23    22   ar
    53    23    21   ar
    54    22    20   ar
    55     8     6    1
    56     5     6    1
    57   156   157    1
    58   106   107    1
    59   105   103   ar
    60   107   110    1
    61    21    19   ar
    62    20    18   ar
    63     6     7    1
    64   111   110    1
    65    27    26    2
    66   104   103   ar
    67   171   169    1
    68   103   102    1
    69   162   161    2
    70   110   112    1
    71   157   160    1
    72   157   158    1
    73    19    18   ar
    74    18    17    1
    75    13    14    1
    76   161   163   am
    77   161   160    1
    78   165   166    1
    79   165   164    1
    80   165   168    1
    81    24    25    1
    82   166   167    2
    83   158   159    2
    84    26    25    1
    85   179   177    1
    86   102   101    1
    87   169   168    1
    88   169   170    1
    89    25    28    1
    90    17    14    1
    91    28    30    1
    92    28    29    1
    93   187   185   ar
    94    14    15    1
    95    99    98    1
    96    99   100    2
    97    15    16    2
    98    88    87    1
    99    98   101    1
   100    98    97    1
   101   177   176    1
   102    93    92    2
   103    85    86    1
   104    85    84    1
   105   185   184    1
   106   185   186   ar
   107    87    86    2
   108    87    89    1
   109   184   181    1
   110    97    92   am
   111    92    91    1
   112    84    83    1
   113   176   178    1
   114   176   173    1
   115   175   174    2
   116    94    95    1
   117    94    91    1
   118   174   173    1
   119   174   180   am
   120    96    95    1
   121    96    90    1
   122   172   173    1
   123    91    90    1
   124   181   180    1
   125   181   182    1
   126   183   182    2
   127    90    81   am
   128    35    32    1
   129    83    80    1
   130    43    44    1
   131    43    42    1
   132    41    42    1
   133    41    40    1
   134    81    80    1
   135    81    82    2
   136    32    33    1
   137    32    31    1
   138    37    40    1
   139    37    38    1
   140    37    36    1
   141    80    79    1
   142    38    39    2
   143    33    34    2
   144    59    61    1
   145    59    58    1
   146    73    72    2
   147    79    72   am
   148    53    51   ar
   149    68    67    1
   150    58    60    1
   151    58    55    1
   152    72    71    1
   153    52    51   ar
   154    51    50    1
   155    66    67    1
   156    66    63    1
   157    65    64    2
   158    54    55    1
   159    67    69    1
   160    55    56    1
   161    71    74    1
   162    71    70    1
   163    64    70   am
   164    64    63    1
   165    50    49    1
   166    74    75    1
   167    63    62    1
   168    49    46    1
   169    56    57    2
   170    77    76   ar
   171    75    76    1
   172    46    45    1
   173    46    47    1
   174    76    78   ar
   175    47    48    2
