@<TRIPOS>MOLECULE
tmp/2j2mD00.pdb
 221 211 0 0 0
SMALL
GASTEIGER

@<TRIPOS>ATOM
      1  N         26.1010    4.6900    6.9350 N.3    48  ARG48      -0.1231
      2  CA        24.7250    5.0950    7.1370 C.3    48  ARG48       0.1694
      3  C         23.7820    3.9850    6.6910 C.2    48  ARG48       0.2592
      4  O         24.0510    3.2840    5.7120 O.2    48  ARG48      -0.2718
      5  CB        24.4390    6.3810    6.3570 C.3    48  ARG48       0.0321
      6  CG        25.0440    7.6640    6.9270 C.3    48  ARG48       0.0489
      7  CD        25.1040    8.7750    5.8460 C.3    48  ARG48       0.2205
      8  NE        25.5270   10.0560    6.4270 N.pl3  48  ARG48      -0.0865
      9  CZ        26.7880   10.3890    6.7010 C.cat  48  ARG48       0.5346
     10  NH1       27.7820    9.5470    6.4470 N.pl3  48  ARG48       0.1354
     11  NH2       27.0550   11.5690    7.2390 N.pl3  48  ARG48       0.1354
     12  N         22.6680    3.8250    7.3990 N.am   49  VAL49      -0.1966
     13  CA        21.8070    2.6690    7.1450 C.3    49  VAL49       0.1727
     14  C         21.1640    2.8350    5.7790 C.2    49  VAL49       0.2616
     15  O         20.9230    1.8650    5.0850 O.2    49  VAL49      -0.2715
     16  CB        20.7930    2.4060    8.3220 C.3    49  VAL49       0.0290
     17  CG1       19.9130    3.6480    8.6030 C.3    49  VAL49       0.0023
     18  CG2       19.9310    1.1430    8.0640 C.3    49  VAL49       0.0023
     19  N         20.9010    4.0950    5.4140 N.am   50  VAL50      -0.1963
     20  CA        20.5920    4.5370    4.0410 C.3    50  VAL50       0.1727
     21  C         21.3970    5.8160    3.6990 C.2    50  VAL50       0.2616
     22  O         21.8460    6.5450    4.6000 O.2    50  VAL50      -0.2715
     23  CB        19.0790    4.7410    3.8120 C.3    50  VAL50       0.0290
     24  CG1       18.3830    3.3890    3.6430 C.3    50  VAL50       0.0023
     25  CG2       18.4570    5.5230    4.9440 C.3    50  VAL50       0.0023
     26  N         21.5920    6.0680    2.4000 N.am   51  HIS51      -0.1973
     27  CA        22.4190    7.1850    1.9070 C.3    51  HIS51       0.1656
     28  C         23.8910    7.0710    2.2900 C.2    51  HIS51       0.2291
     29  O         24.5840    8.0880    2.4670 O.2    51  HIS51      -0.2864
     30  CB        21.8820    8.5470    2.3640 C.3    51  HIS51       0.0771
     31  CG        20.4840    8.8390    1.9180 C.ar   51  HIS51       0.0820
     32  ND1       20.2010    9.7080    0.8870 N.ar   51  HIS51      -0.2267
     33  CD2       19.2890    8.4070    2.3840 C.ar   51  HIS51       0.1154
     34  CE1       18.8930    9.7870    0.7250 C.ar   51  HIS51       0.1986
     35  NE2       18.3180    9.0030    1.6180 N.ar   51  HIS51      -0.2212
     36  N         25.7020   17.7040    2.1200 N.3    88  ARG88      -0.1245
     37  CA        26.0920   16.3620    1.7080 C.3    88  ARG88       0.1563
     38  C         25.0260   15.8350    0.7680 C.2    88  ARG88       0.2260
     39  O         23.8280   15.9440    1.0650 O.2    88  ARG88      -0.2867
     40  CB        26.2720   15.4130    2.9070 C.3    88  ARG88       0.0307
     41  CG        26.6890   13.9630    2.5210 C.3    88  ARG88       0.0489
     42  CD        26.9110   13.0770    3.7690 C.3    88  ARG88       0.2205
     43  NE        27.3680   11.7110    3.4660 N.pl3  88  ARG88      -0.0865
     44  CZ        26.5730   10.6920    3.1440 C.cat  88  ARG88       0.5346
     45  NH1       25.2410   10.8660    3.0260 N.pl3  88  ARG88       0.1354
     46  NH2       27.1160    9.4940    2.9080 N.pl3  88  ARG88       0.1354
     47  N         23.8570   12.4900   -1.8550 N.3    90  SER90      -0.1217
     48  CA        23.9230   11.0440   -1.7610 C.3    90  SER90       0.1889
     49  C         22.9180   10.3250   -2.6400 C.2    90  SER90       0.2288
     50  O         21.8850   10.8930   -3.0260 O.2    90  SER90      -0.2866
     51  CB        23.6890   10.5940   -0.3090 C.3    90  SER90       0.2089
     52  OG        22.4320   11.0550    0.1680 O.3    90  SER90      -0.2183
     53  N         19.8260   12.3520   -2.1430 N.3   107  GLY107     -0.1225
     54  CA        19.7580   13.0910   -0.8970 C.3   107  GLY107      0.1811
     55  C         20.3230   14.4710   -1.0770 C.2   107  GLY107      0.2280
     56  O         21.2460   14.6640   -1.8490 O.2   107  GLY107     -0.2866
     57  N         21.1870   17.3810    1.6750 N.3   109  SER109     -0.1217
     58  CA        21.2250   17.7430    3.0890 C.3   109  SER109      0.1889
     59  C         22.1000   18.9560    3.3120 C.2   109  SER109      0.2288
     60  O         23.1910   19.0380    2.7680 O.2   109  SER109     -0.2866
     61  CB        21.7280   16.5700    3.9410 C.3   109  SER109      0.2089
     62  OG        20.9050   15.4270    3.7360 O.3   109  SER109     -0.2183
     63  N         16.9840   18.3910    5.3280 N.3   122  VAL122     -0.1231
     64  CA        17.2880   17.0330    4.8920 C.3   122  VAL122      0.1692
     65  C         16.2310   16.5810    3.9000 C.2   122  VAL122      0.2593
     66  O         15.1860   16.0380    4.2700 O.2   122  VAL122     -0.2718
     67  CB        17.4570   16.0280    6.0850 C.3   122  VAL122      0.0266
     68  CG1       18.1260   14.7320    5.6190 C.3   122  VAL122      0.0020
     69  CG2       18.2830   16.6430    7.1880 C.3   122  VAL122      0.0020
     70  N         16.5180   16.8440    2.6310 N.am  123  GLY123     -0.1942
     71  CA        15.6320   16.4980    1.5350 C.3   123  GLY123      0.2014
     72  C         16.2540   15.5720    0.5010 C.2   123  GLY123      0.2638
     73  O         17.3530   15.0340    0.6950 O.2   123  GLY123     -0.2714
     74  N         15.4960   15.3770   -0.5780 N.am  124  ASN124     -0.1972
     75  CA        15.8810   14.6020   -1.7550 C.3   124  ASN124      0.1688
     76  C         15.6830   15.5100   -2.9680 C.2   124  ASN124      0.2292
     77  O         15.0910   16.5890   -2.8480 O.2   124  ASN124     -0.2864
     78  CB        14.9790   13.3630   -1.9100 C.3   124  ASN124      0.1181
     79  CG        15.4490   12.1620   -1.0970 C.2   124  ASN124      0.2629
     80  OD1       16.6100   12.0850   -0.6840 O.2   124  ASN124     -0.2716
     81  ND2       14.5310   11.2100   -0.8530 N.am  124  ASN124     -0.0877
     82  N          7.5030   11.0200   -1.9900 N.3   129  PHE129     -0.1241
     83  CA         8.0710    9.7970   -1.4200 C.3   129  PHE129      0.1605
     84  C          7.1280    8.6060   -1.5620 C.2   129  PHE129      0.2264
     85  O          5.9260    8.7790   -1.7480 O.2   129  PHE129     -0.2867
     86  CB         8.4650    9.9930    0.0430 C.3   129  PHE129      0.0534
     87  CG         9.5960    9.0830    0.4960 C.ar  129  PHE129     -0.0203
     88  CD1        9.3460    7.9890    1.3010 C.ar  129  PHE129     -0.0042
     89  CD2       10.9090    9.3260    0.0950 C.ar  129  PHE129     -0.0042
     90  CE1       10.3700    7.1580    1.7120 C.ar  129  PHE129     -0.0003
     91  CE2       11.9430    8.4880    0.4940 C.ar  129  PHE129     -0.0003
     92  CZ        11.6780    7.4110    1.3100 C.ar  129  PHE129     -0.0000
     93  N          6.0510    6.7050    8.7520 N.3   134  ALA134     -0.1245
     94  CA         7.3320    6.1490    9.1750 C.3   134  ALA134      0.1562
     95  C          7.2760    4.6380    9.5220 C.2   134  ALA134      0.2260
     96  O          8.2330    3.9270    9.2700 O.2   134  ALA134     -0.2867
     97  CB         7.9050    6.9780   10.3140 C.3   134  ALA134      0.0290
     98  N          8.7930    2.4580    6.8630 N.3   137  PHE137     -0.1241
     99  CA        10.1550    2.7490    6.3570 C.3   137  PHE137      0.1605
    100  C         11.1210    1.5810    6.3850 C.2   137  PHE137      0.2264
    101  O         11.8280    1.3930    5.4190 O.2   137  PHE137     -0.2867
    102  CB        10.8020    3.9790    7.0260 C.3   137  PHE137      0.0534
    103  CG        12.0300    4.4820    6.3000 C.ar  137  PHE137     -0.0203
    104  CD1       11.9130    5.1260    5.0530 C.ar  137  PHE137     -0.0042
    105  CD2       13.3060    4.2970    6.8370 C.ar  137  PHE137     -0.0042
    106  CE1       13.0410    5.5720    4.3630 C.ar  137  PHE137     -0.0003
    107  CE2       14.4410    4.7590    6.1470 C.ar  137  PHE137     -0.0003
    108  CZ        14.3020    5.3910    4.9080 C.ar  137  PHE137     -0.0000
    109  N         12.1140   19.6650    0.0840 N.3   192  SER192     -0.1202
    110  CA        11.8330   19.2930    1.4590 C.3   192  SER192      0.2020
    111  C         10.9880   18.0230    1.4940 C.2   192  SER192      0.2619
    112  O         11.0390   17.2720    2.4790 O.2   192  SER192     -0.2717
    113  CB        11.1640   20.4390    2.2450 C.3   192  SER192      0.2103
    114  OG         9.9100   20.8430    1.7020 O.3   192  SER192     -0.2182
    115  N         10.2520   17.7690    0.4060 N.am  193  VAL193     -0.1965
    116  CA         9.2350   16.6960    0.3220 C.3   193  VAL193      0.1727
    117  C          8.0930   16.9390    1.3290 C.2   193  VAL193      0.2616
    118  O          6.9370   17.1150    0.9160 O.2   193  VAL193     -0.2715
    119  CB         9.8300   15.2500    0.4280 C.3   193  VAL193      0.0290
    120  CG1        8.7210   14.1920    0.3800 C.3   193  VAL193      0.0023
    121  CG2       10.8360   14.9900   -0.6800 C.3   193  VAL193      0.0023
    122  N          8.4070   16.9810    2.6260 N.am  194  HIS194     -0.1973
    123  CA         7.4000   17.3050    3.6350 C.3   194  HIS194      0.1656
    124  C          7.1520   18.8010    3.6870 C.2   194  HIS194      0.2291
    125  O          8.0390   19.5960    3.3240 O.2   194  HIS194     -0.2864
    126  CB         7.8290   16.8540    5.0440 C.3   194  HIS194      0.0771
    127  CG         8.4610   15.4990    5.0860 C.ar  194  HIS194      0.0820
    128  ND1        7.7390   14.3330    4.9350 N.ar  194  HIS194     -0.2267
    129  CD2        9.7510   15.1270    5.2400 C.ar  194  HIS194      0.1154
    130  CE1        8.5570   13.3000    5.0050 C.ar  194  HIS194      0.1986
    131  NE2        9.7850   13.7560    5.1690 N.ar  194  HIS194     -0.2212
    132  N         29.4470   13.6660    9.6520 N.3   308  VAL308     -0.1231
    133  CA        28.3320   14.5830    9.8770 C.3   308  VAL308      0.1692
    134  C         26.9950   13.8830   10.1240 C.2   308  VAL308      0.2593
    135  O         26.7240   12.8300    9.5570 O.2   308  VAL308     -0.2718
    136  CB        28.1600   15.6060    8.7160 C.3   308  VAL308      0.0266
    137  CG1       27.6730   14.9330    7.4380 C.3   308  VAL308      0.0020
    138  CG2       27.2130   16.7690    9.1470 C.3   308  VAL308      0.0020
    139  N         26.1660   14.4860   10.9730 N.am  309  GLY309     -0.1942
    140  CA        24.7870   14.0370   11.1680 C.3   309  GLY309      0.2014
    141  C         23.7900   15.1500   10.8590 C.2   309  GLY309      0.2638
    142  O         23.9820   16.2760   11.2780 O.2   309  GLY309     -0.2714
    143  N         22.7470   14.8410   10.0940 N.am  310  PHE310     -0.1973
    144  CA        21.6510   15.7900    9.8810 C.3   310  PHE310      0.1639
    145  C         20.3720   15.1680   10.4330 C.2   310  PHE310      0.2290
    146  O         20.2690   13.9590   10.5810 O.2   310  PHE310     -0.2864
    147  CB        21.4180   16.1170    8.4110 C.3   310  PHE310      0.0560
    148  CG        22.6500   16.5060    7.6370 C.ar  310  PHE310     -0.0200
    149  CD1       22.9830   17.8540    7.4530 C.ar  310  PHE310     -0.0042
    150  CD2       23.4470   15.5240    7.0140 C.ar  310  PHE310     -0.0042
    151  CE1       24.1080   18.2080    6.6930 C.ar  310  PHE310     -0.0003
    152  CE2       24.5670   15.8770    6.2450 C.ar  310  PHE310     -0.0003
    153  CZ        24.8980   17.2130    6.0900 C.ar  310  PHE310     -0.0000
    154  N          5.2230   10.6370    8.0710 N.3   326  LEU326     -0.1245
    155  CA         6.5430   10.1430    7.6630 C.3   326  LEU326      0.1561
    156  C          7.6510   10.9790    8.3220 C.2   326  LEU326      0.2260
    157  O          8.6900   10.4320    8.7510 O.2   326  LEU326     -0.2867
    158  CB         6.6930   10.1690    6.1410 C.3   326  LEU326      0.0270
    159  CG         7.8780    9.4020    5.5120 C.3   326  LEU326      0.0019
    160  CD1        7.6730    7.8740    5.6060 C.3   326  LEU326      0.0001
    161  CD2        8.0950    9.8230    4.0530 C.3   326  LEU326      0.0001
    162  N          8.4480   10.3900   12.1900 N.3   329  GLY329     -0.1210
    163  CA         9.3550    9.2920   12.4870 C.3   329  GLY329      0.1956
    164  C         10.8020    9.6940   12.2490 C.2   329  GLY329      0.2611
    165  O         11.6980    9.2860   12.9980 O.2   329  GLY329     -0.2717
    166  N         11.0320   10.4980   11.2080 N.am  330  ARG330     -0.1979
    167  CA        12.3660   11.0210   10.9080 C.3   330  ARG330      0.1597
    168  C         12.9120   11.8620   12.0650 C.2   330  ARG330      0.2287
    169  O         14.1040   11.7760   12.3480 O.2   330  ARG330     -0.2864
    170  CB        12.3670   11.8590    9.6370 C.3   330  ARG330      0.0334
    171  CG        11.9020   11.1570    8.3910 C.3   330  ARG330      0.0492
    172  CD        11.9640   12.1060    7.1810 C.3   330  ARG330      0.2205
    173  NE        13.3370   12.3590    6.7380 N.pl3 330  ARG330     -0.0865
    174  CZ        13.6930   13.4220    6.0320 C.cat 330  ARG330      0.5346
    175  NH1       12.7750   14.3300    5.6990 N.pl3 330  ARG330      0.1354
    176  NH2       14.9540   13.5870    5.6670 N.pl3 330  ARG330      0.1354
    177  N         14.3570    9.2370   14.2610 N.3   333  SER333     -0.1202
    178  CA        15.2770    8.3250   13.6120 C.3   333  SER333      0.2020
    179  C         16.7060    8.8360   13.4840 C.2   333  SER333      0.2618
    180  O         17.6640    8.1240   13.7980 O.2   333  SER333     -0.2717
    181  CB        14.7260    8.0220   12.2000 C.3   333  SER333      0.2103
    182  OG        15.2170    6.8020   11.6880 O.3   333  SER333     -0.2182
    183  N         16.8700   10.0630   12.9990 N.am  334  TYR334     -0.1975
    184  CA        18.1850   10.5100   12.5670 C.3   334  TYR334      0.1639
    185  C         19.1330   10.6260   13.7480 C.2   334  TYR334      0.2290
    186  O         20.2120   10.0290   13.7590 O.2   334  TYR334     -0.2864
    187  CB        18.0770   11.8300   11.7870 C.3   334  TYR334      0.0560
    188  CG        17.5150   11.6400   10.3790 C.ar  334  TYR334     -0.0198
    189  CD1       18.3200   11.8160    9.2400 C.ar  334  TYR334     -0.0009
    190  CD2       16.1830   11.2450   10.1950 C.ar  334  TYR334     -0.0009
    191  CE1       17.7930   11.6270    7.9600 C.ar  334  TYR334      0.0417
    192  CE2       15.6600   11.0530    8.9380 C.ar  334  TYR334      0.0417
    193  CZ        16.4560   11.2480    7.8220 C.ar  334  TYR334      0.1957
    194  OH        15.8780   11.0380    6.5800 O.3   334  TYR334     -0.2866
    195  N         19.9660    7.2150   15.2390 N.3   337  THR337     -0.1203
    196  CA        20.9490    6.4010   14.5140 C.3   337  THR337      0.1994
    197  C         22.3550    6.9720   14.6400 C.2   337  THR337      0.2617
    198  O         23.3320    6.2030   14.7100 O.2   337  THR337     -0.2717
    199  CB        20.5810    6.1120   13.0160 C.3   337  THR337      0.1784
    200  OG1       21.3400    4.9830   12.5470 O.3   337  THR337     -0.2211
    201  CG2       20.8880    7.2690   12.1070 C.3   337  THR337      0.0376
    202  N         22.4510    8.3030   14.6890 N.am  338  GLN338     -0.1979
    203  CA        23.7360    8.9900   14.8480 C.3   338  GLN338      0.1601
    204  C         24.4330    8.7040   16.1890 C.2   338  GLN338      0.2287
    205  O         25.6770    8.6370   16.2410 O.2   338  GLN338     -0.2864
    206  CB        23.5760   10.5050   14.6160 C.3   338  GLN338      0.0394
    207  CG        23.4530   10.8620   13.1280 C.3   338  GLN338      0.0908
    208  CD        22.4460   11.9850   12.8300 C.2   338  GLN338      0.2608
    209  OE1       22.2000   12.8610   13.6570 O.2   338  GLN338     -0.2717
    210  NE2       21.8740   11.9550   11.6360 N.am  338  GLN338     -0.0878
    211  N         25.7680    5.4120   15.3110 N.3   341  ARG341     -0.1245
    212  CA        26.7240    5.4060   14.1950 C.3   341  ARG341      0.1563
    213  C         27.9980    6.2230   14.4500 C.2   341  ARG341      0.2260
    214  O         29.1170    5.7830   14.1470 O.2   341  ARG341     -0.2867
    215  CB        26.0540    5.8930   12.9020 C.3   341  ARG341      0.0307
    216  CG        27.0090    5.9640   11.6920 C.3   341  ARG341      0.0489
    217  CD        26.3100    6.2900   10.3910 C.3   341  ARG341      0.2205
    218  NE        25.7170    7.6280   10.3800 N.pl3 341  ARG341     -0.0865
    219  CZ        26.3820    8.7730   10.1900 C.cat 341  ARG341      0.5346
    220  NH1       25.7060    9.9150   10.1680 N.pl3 341  ARG341      0.1354
    221  NH2       27.7090    8.7930   10.0420 N.pl3 341  ARG341      0.1354
@<TRIPOS>BOND
     1    50    49    2
     2    76    77    2
     3    76    75    1
     4    49    48    1
     5    53    54    1
     6    82    83    1
     7    78    75    1
     8    78    79    1
     9    47    48    1
    10    56    55    2
    11    48    51    1
    12    75    74    1
    13    85    84    2
    14    84    83    1
    15    83    86    1
    16    79    81   am
    17    79    80    2
    18    55    54    1
    19   121   119    1
    20    74    72   am
    21    51    52    1
    22    86    87    1
    23   109   110    1
    24    89    91   ar
    25    89    87   ar
    26   116   115    1
    27   116   119    1
    28   116   117    1
    29   120   119    1
    30   115   111   am
    31    91    92   ar
    32    87    88   ar
    33    72    73    2
    34    72    71    1
    35    34    32   ar
    36    34    35   ar
    37    38    39    2
    38    38    37    1
    39    32    31   ar
    40   118   117    2
    41    88    90   ar
    42    92    90   ar
    43   117   122   am
    44   110   111    1
    45   110   113    1
    46   111   112    2
    47    71    70    1
    48    35    33   ar
    49    57    58    1
    50   114   113    1
    51    37    36    1
    52    37    40    1
    53    27    28    1
    54    27    30    1
    55    27    26    1
    56    31    30    1
    57    31    33   ar
    58    28    29    2
    59    26    21   am
    60    41    40    1
    61    41    42    1
    62   122   123    1
    63    70    65   am
    64    60    59    2
    65    46    44    1
    66    45    44    1
    67    58    59    1
    68    58    61    1
    69    44    43    2
    70   125   124    2
    71    43    42    1
    72   123   124    1
    73   123   126    1
    74    24    23    1
    75    21    20    1
    76    21    22    2
    77    62    61    1
    78    23    20    1
    79    23    25    1
    80    65    66    2
    81    65    64    1
    82    20    19    1
    83   161   159    1
    84   106   108   ar
    85   106   104   ar
    86    64    63    1
    87    64    67    1
    88   108   107   ar
    89   128   130   ar
    90   128   127   ar
    91   130   131   ar
    92   126   127    1
    93   104   103   ar
    94    15    14    2
    95   127   129   ar
    96   131   129   ar
    97    19    14   am
    98   101   100    2
    99   159   160    1
   100   159   158    1
   101    68    67    1
   102   176   174    1
   103   175   174    1
   104     4     3    2
   105    14    13    1
   106     7     8    1
   107     7     6    1
   108   174   173    2
   109    67    69    1
   110   153   152   ar
   111   153   151   ar
   112   158   155    1
   113   107   105   ar
   114   152   150   ar
   115   103   105   ar
   116   103   102    1
   117     5     6    1
   118     5     2    1
   119    99   100    1
   120    99    98    1
   121    99   102    1
   122     8     9    2
   123    10     9    1
   124   194   193    1
   125     3     2    1
   126     3    12   am
   127   151   149   ar
   128     9    11    1
   129   173   172    1
   130     1     2    1
   131   150   148   ar
   132    13    12    1
   133    13    16    1
   134   172   171    1
   135   137   136    1
   136   149   148   ar
   137   148   147    1
   138   155   154    1
   139   155   156    1
   140   193   191   ar
   141   193   192   ar
   142   191   189   ar
   143    18    16    1
   144   156   157    2
   145    16    17    1
   146   171   170    1
   147   147   144    1
   148   136   138    1
   149   136   133    1
   150    93    94    1
   151   192   190   ar
   152    94    95    1
   153    94    97    1
   154   189   188   ar
   155    96    95    2
   156   135   134    2
   157   170   167    1
   158   132   133    1
   159   133   134    1
   160   144   143    1
   161   144   145    1
   162   221   219    1
   163   143   141   am
   164   134   139   am
   165   220   219    1
   166   219   218    2
   167   190   188   ar
   168   188   187    1
   169   218   217    1
   170   217   216    1
   171   145   146    2
   172   141   140    1
   173   141   142    2
   174   167   166    1
   175   167   168    1
   176   139   140    1
   177   166   164   am
   178   210   208   am
   179   182   181    1
   180   216   215    1
   181   187   184    1
   182   168   169    2
   183   201   199    1
   184   162   163    1
   185   181   178    1
   186   164   163    1
   187   164   165    2
   188   200   199    1
   189   184   183    1
   190   184   185    1
   191   208   207    1
   192   208   209    2
   193   215   212    1
   194   183   179   am
   195   199   196    1
   196   207   206    1
   197   179   178    1
   198   179   180    2
   199   178   177    1
   200   185   186    2
   201   214   213    2
   202   212   213    1
   203   212   211    1
   204   196   197    1
   205   196   195    1
   206   206   203    1
   207   197   202   am
   208   197   198    2
   209   202   203    1
   210   203   204    1
   211   204   205    2
