@<TRIPOS>MOLECULE
tmp/2j2pC00.pdb
 85 77 0 0 0
SMALL
GASTEIGER

@<TRIPOS>ATOM
      1  N         11.8990   46.3790   10.6960 N.3    15  SER15      -0.1217
      2  CA        13.1090   46.9480   10.0970 C.3    15  SER15       0.1889
      3  C         13.1410   48.4560   10.2960 C.2    15  SER15       0.2288
      4  O         12.1070   49.1240   10.2480 O.2    15  SER15      -0.2866
      5  CB        13.1980   46.6390    8.5980 C.3    15  SER15       0.2089
      6  OG        13.3990   45.2640    8.3600 O.3    15  SER15      -0.2183
      7  N         20.9390   50.4960    9.7810 N.3    31  LEU31      -0.1245
      8  CA        19.6680   49.9700    9.2990 C.3    31  LEU31       0.1561
      9  C         19.5780   48.4820    9.5710 C.2    31  LEU31       0.2260
     10  O         20.4540   47.7230    9.1720 O.2    31  LEU31      -0.2867
     11  CB        19.5030   50.2250    7.8050 C.3    31  LEU31       0.0270
     12  CG        18.2130   49.6690    7.2020 C.3    31  LEU31       0.0019
     13  CD1       17.0050   50.2180    7.9430 C.3    31  LEU31       0.0001
     14  CD2       18.1230   50.0080    5.7280 C.3    31  LEU31       0.0001
     15  N         17.6000   45.1480    8.9030 N.3    33  ASP33      -0.1239
     16  CA        16.6120   44.4100    8.1290 C.3    33  ASP33       0.1674
     17  C         16.1440   43.2650    9.0000 C.2    33  ASP33       0.2266
     18  O         16.8790   42.2960    9.1810 O.2    33  ASP33      -0.2867
     19  CB        17.2500   43.8680    6.8490 C.3    33  ASP33       0.1410
     20  CG        16.2730   43.0750    5.9680 C.2    33  ASP33       0.3668
     21  OD1       15.1850   42.6610    6.4360 O.co2  33  ASP33      -0.2456
     22  OD2       16.6090   42.8610    4.7830 O.co2  33  ASP33      -0.2456
     23  N         13.5390   41.3270    8.4420 N.3    35  ASP35      -0.1225
     24  CA        12.5510   40.5520    7.7180 C.3    35  ASP35       0.1805
     25  C         13.1250   39.5030    6.7810 C.2    35  ASP35       0.2598
     26  O         12.5740   38.4120    6.6710 O.2    35  ASP35      -0.2718
     27  CB        11.6390   41.4860    6.9330 C.3    35  ASP35       0.1424
     28  CG        10.3690   40.8040    6.4720 C.2    35  ASP35       0.3668
     29  OD1        9.8520   39.9260    7.1990 O.co2  35  ASP35      -0.2456
     30  OD2        9.8710   41.1640    5.3840 O.co2  35  ASP35      -0.2456
     31  N         14.2160   39.8350    6.0970 N.am   36  THR36      -0.1953
     32  CA        14.7620   38.9690    5.0550 C.3    36  THR36       0.1897
     33  C         15.4650   37.7750    5.6610 C.2    36  THR36       0.2313
     34  O         16.2190   37.9190    6.6200 O.2    36  THR36      -0.2863
     35  CB        15.7660   39.7300    4.1570 C.3    36  THR36       0.1794
     36  OG1       15.1780   40.9570    3.7250 O.3    36  THR36      -0.2208
     37  CG2       16.1770   38.9030    2.9310 C.3    36  THR36       0.0378
     38  N         22.4510   46.4630    7.5110 N.3    43  VAL43      -0.1245
     39  CA        22.5760   46.8520    6.1140 C.3    43  VAL43       0.1561
     40  C         23.6470   47.9260    5.9330 C.2    43  VAL43       0.2260
     41  O         23.6290   48.9420    6.6250 O.2    43  VAL43      -0.2867
     42  CB        21.2120   47.3200    5.5500 C.3    43  VAL43       0.0252
     43  CG1       21.3560   47.8170    4.1050 C.3    43  VAL43       0.0019
     44  CG2       20.1930   46.1800    5.6270 C.3    43  VAL43       0.0019
     45  N         22.6580   50.6030    0.1150 N.3    46  ARG46      -0.1245
     46  CA        21.2980   50.5790   -0.3910 C.3    46  ARG46       0.1563
     47  C         21.0800   51.5380   -1.5630 C.2    46  ARG46       0.2260
     48  O         21.2990   52.7490   -1.4520 O.2    46  ARG46      -0.2867
     49  CB        20.2920   50.8330    0.7430 C.3    46  ARG46       0.0307
     50  CG        18.8280   50.6610    0.3420 C.3    46  ARG46       0.0489
     51  CD        17.9230   50.3130    1.5480 C.3    46  ARG46       0.2205
     52  NE        16.9560   51.3630    1.8800 N.pl3  46  ARG46      -0.0865
     53  CZ        15.6650   51.3190    1.5670 C.cat  46  ARG46       0.5346
     54  NH1       15.1770   50.2790    0.9150 N.pl3  46  ARG46       0.1354
     55  NH2       14.8610   52.3160    1.8990 N.pl3  46  ARG46       0.1354
     56  N         12.8710   39.3310   -7.6080 N.3   101  TYR101     -0.1241
     57  CA        13.9350   39.3380   -6.6010 C.3   101  TYR101      0.1605
     58  C         15.0330   38.3160   -6.9240 C.2   101  TYR101      0.2264
     59  O         14.7680   37.2560   -7.5020 O.2   101  TYR101     -0.2867
     60  CB        13.3740   39.1200   -5.1790 C.3   101  TYR101      0.0534
     61  CG        12.5050   40.2690   -4.6640 C.ar  101  TYR101     -0.0201
     62  CD1       11.2670   40.5620   -5.2600 C.ar  101  TYR101     -0.0009
     63  CD2       12.9070   41.0500   -3.5720 C.ar  101  TYR101     -0.0009
     64  CE1       10.4560   41.6130   -4.7980 C.ar  101  TYR101      0.0417
     65  CE2       12.1010   42.1070   -3.0990 C.ar  101  TYR101      0.0417
     66  CZ        10.8760   42.3850   -3.7210 C.ar  101  TYR101      0.1957
     67  OH        10.0680   43.4230   -3.2690 O.3   101  TYR101     -0.2866
     68  N         20.7130   45.8730   -2.1000 N.3   206  GLU206     -0.1245
     69  CA        21.0900   46.0000   -0.6990 C.3   206  GLU206      0.1567
     70  C         22.1790   44.9960   -0.3530 C.2   206  GLU206      0.2260
     71  O         22.1270   43.8530   -0.8020 O.2   206  GLU206     -0.2867
     72  CB        19.8870   45.7850    0.2130 C.3   206  GLU206      0.0388
     73  CG        18.8050   46.8500    0.1380 C.3   206  GLU206      0.1160
     74  CD        17.6760   46.5880    1.1330 C.2   206  GLU206      0.3649
     75  OE1       17.4670   45.4080    1.4910 O.co2 206  GLU206     -0.2457
     76  OE2       17.0000   47.5520    1.5690 O.co2 206  GLU206     -0.2457
     77  N         24.0560   43.3240    3.0300 N.3   208  LYS208     -0.1245
     78  CA        23.8600   43.2240    4.4810 C.3   208  LYS208      0.1561
     79  C         24.7100   42.1460    5.1630 C.2   208  LYS208      0.2260
     80  O         25.0780   41.1480    4.5440 O.2   208  LYS208     -0.2867
     81  CB        22.3750   43.0150    4.7780 C.3   208  LYS208      0.0271
     82  CG        21.7220   41.9540    3.8940 C.3   208  LYS208      0.0035
     83  CD        20.2060   42.0860    3.8410 C.3   208  LYS208      0.0206
     84  CE        19.7720   43.1580    2.8530 C.3   208  LYS208      0.1093
     85  NZ        18.3080   43.1220    2.5780 N.3   208  LYS208     -0.1314
@<TRIPOS>BOND
     1    56    57    1
     2    59    58    2
     3    58    57    1
     4    57    60    1
     5    62    64   ar
     6    62    61   ar
     7    60    61    1
     8    64    66   ar
     9    61    63   ar
    10    66    67    1
    11    66    65   ar
    12    63    65   ar
    13    68    69    1
    14    47    48    2
    15    47    46    1
    16    71    70    2
    17    69    70    1
    18    69    72    1
    19    46    45    1
    20    46    49    1
    21    73    72    1
    22    73    74    1
    23    50    49    1
    24    50    51    1
    25    54    53    1
    26    74    75   ar
    27    74    76   ar
    28    51    52    1
    29    53    52    2
    30    53    55    1
    31    85    84    1
    32    84    83    1
    33    37    35    1
    34    77    78    1
    35    36    35    1
    36    83    82    1
    37    82    81    1
    38    43    42    1
    39    35    32    1
    40    78    81    1
    41    78    79    1
    42    80    79    2
    43    22    20   ar
    44    32    33    1
    45    32    31    1
    46    30    28   ar
    47    42    44    1
    48    42    39    1
    49    33    34    2
    50    14    12    1
    51    40    39    1
    52    40    41    2
    53    20    21   ar
    54    20    19    1
    55    31    25   am
    56    39    38    1
    57    28    27    1
    58    28    29   ar
    59    26    25    2
    60    25    24    1
    61    19    16    1
    62    27    24    1
    63    12    11    1
    64    12    13    1
    65    24    23    1
    66    11     8    1
    67    16    15    1
    68    16    17    1
    69     6     5    1
    70     5     2    1
    71    17    18    2
    72    10     9    2
    73     8     9    1
    74     8     7    1
    75     2     3    1
    76     2     1    1
    77     4     3    2
