@<TRIPOS>MOLECULE
tmp/2j38A00.pdb
 182 183 0 0 0
SMALL
GASTEIGER

@<TRIPOS>ATOM
      1  N         14.4440   10.6710   14.0340 N.3    42  HIS42      -0.1241
      2  CA        12.9920   10.6290   14.0160 C.3    42  HIS42       0.1621
      3  C         12.3970   11.9750   14.4020 C.2    42  HIS42       0.2264
      4  O         11.1840   12.1520   14.3070 O.2    42  HIS42      -0.2867
      5  CB        12.4220    9.5050   14.9060 C.3    42  HIS42       0.0745
      6  CG        12.2040    9.9040   16.3400 C.ar   42  HIS42       0.0817
      7  ND1       13.0480    9.5210   17.3570 N.ar   42  HIS42      -0.2268
      8  CD2       11.2230   10.6350   16.9270 C.ar   42  HIS42       0.1154
      9  CE1       12.6060   10.0090   18.5040 C.ar   42  HIS42       0.1986
     10  NE2       11.5020   10.6940   18.2710 N.ar   42  HIS42      -0.2212
     11  N         12.0640    4.1130   10.1680 N.3    82  LYS82      -0.1231
     12  CA        10.8520    4.4910   10.9180 C.3    82  LYS82       0.1693
     13  C         10.2170    3.3330   11.6300 C.2    82  LYS82       0.2592
     14  O          9.5240    3.5160   12.6150 O.2    82  LYS82      -0.2718
     15  CB         9.7480    5.0190    9.9780 C.3    82  LYS82       0.0285
     16  CG         9.6930    6.5270    9.6560 C.3    82  LYS82       0.0035
     17  CD         8.5890    6.7880    8.5640 C.3    82  LYS82       0.0206
     18  CE         8.2660    8.2880    8.3160 C.3    82  LYS82       0.1093
     19  NZ         7.1210    8.4770    7.3320 N.3    82  LYS82      -0.1314
     20  N         10.4330    2.1430   11.0950 N.am   83  GLU83      -0.1966
     21  CA         9.7500    0.9380   11.5480 C.3    83  GLU83       0.1733
     22  C         10.2460    0.3510   12.8640 C.2    83  GLU83       0.2617
     23  O          9.4710   -0.2980   13.5760 O.2    83  GLU83      -0.2715
     24  CB         9.7630   -0.1040   10.4240 C.3    83  GLU83       0.0429
     25  CG         9.2530    0.4920    9.1100 C.3    83  GLU83       0.1163
     26  CD         8.9580   -0.5330    8.0470 C.2    83  GLU83       0.3649
     27  OE1        8.7050   -1.7150    8.4000 O.co2  83  GLU83      -0.2457
     28  OE2        8.9590   -0.1410    6.8500 O.co2  83  GLU83      -0.2457
     29  N         11.5230    0.5860   13.1700 N.am   84  THR84      -0.1937
     30  CA        12.1330    0.1070   14.4030 C.3    84  THR84       0.2028
     31  C         12.8780    1.2020   15.1860 C.2    84  THR84       0.2642
     32  O         13.2470    0.9790   16.3440 O.2    84  THR84      -0.2714
     33  CB        13.1460   -1.0200   14.1120 C.3    84  THR84       0.1808
     34  OG1       14.1460   -0.5340   13.2180 O.3    84  THR84      -0.2208
     35  CG2       12.4730   -2.2450   13.4740 C.3    84  THR84       0.0379
     36  N         13.0890    2.3680   14.5490 N.am   85  TYR85      -0.1973
     37  CA        13.9220    3.4810   15.0770 C.3    85  TYR85       0.1639
     38  C         15.4200    3.1300   15.1440 C.2    85  TYR85       0.2290
     39  O         16.1550    3.6990   15.9450 O.2    85  TYR85      -0.2864
     40  CB        13.3980    4.0090   16.4320 C.3    85  TYR85       0.0560
     41  CG        12.2640    5.0220   16.3200 C.ar   85  TYR85      -0.0198
     42  CD1       11.5260    5.1380   15.1500 C.ar   85  TYR85      -0.0009
     43  CD2       11.8880    5.8090   17.4110 C.ar   85  TYR85      -0.0009
     44  CE1       10.4740    6.0300   15.0410 C.ar   85  TYR85       0.0417
     45  CE2       10.8270    6.7110   17.3220 C.ar   85  TYR85       0.0417
     46  CZ        10.1300    6.8190   16.1210 C.ar   85  TYR85       0.1957
     47  OH         9.0710    7.6810   15.9830 O.3    85  TYR85      -0.2866
     48  N          9.0050   -4.4610   21.4170 N.3   162  PHE162     -0.1241
     49  CA         9.6100   -4.0170   20.1730 C.3   162  PHE162      0.1605
     50  C         11.0930   -4.3630   20.1960 C.2   162  PHE162      0.2264
     51  O         11.7030   -4.4720   21.2670 O.2   162  PHE162     -0.2867
     52  CB         9.3950   -2.5170   19.9770 C.3   162  PHE162      0.0534
     53  CG         7.9610   -2.1320   19.7780 C.ar  162  PHE162     -0.0203
     54  CD1        7.4350   -1.9980   18.4790 C.ar  162  PHE162     -0.0042
     55  CD2        7.1260   -1.9100   20.8700 C.ar  162  PHE162     -0.0042
     56  CE1        6.0860   -1.6400   18.2760 C.ar  162  PHE162     -0.0003
     57  CE2        5.7780   -1.5630   20.6960 C.ar  162  PHE162     -0.0003
     58  CZ         5.2570   -1.4180   19.4080 C.ar  162  PHE162     -0.0000
     59  N         11.1360    8.5980   34.5500 N.3   179  ASP179     -0.1225
     60  CA        11.4890    8.2270   33.1590 C.3   179  ASP179      0.1805
     61  C         11.6010    9.4960   32.2770 C.2   179  ASP179      0.2598
     62  O         11.2850   10.6000   32.7210 O.2   179  ASP179     -0.2718
     63  CB        10.3840    7.3470   32.5740 C.3   179  ASP179      0.1424
     64  CG        10.8270    6.5480   31.3660 C.2   179  ASP179      0.3668
     65  OD1       12.0140    6.5410   30.9970 O.co2 179  ASP179     -0.2456
     66  OD2        9.9630    5.8880   30.7830 O.co2 179  ASP179     -0.2456
     67  N         12.0990    9.3350   31.0520 N.am  180  ALA180     -0.1966
     68  CA        12.0420   10.3870   30.0560 C.3   180  ALA180      0.1728
     69  C         10.6050   10.2760   29.5590 C.2   180  ALA180      0.2616
     70  O          9.8790    9.3820   29.9990 O.2   180  ALA180     -0.2715
     71  CB        13.0290   10.1570   28.9210 C.3   180  ALA180      0.0334
     72  N         10.1850   11.1770   28.6680 N.am  181  CYS181     -0.1954
     73  CA         8.8050   11.1690   28.1970 C.3   181  CYS181      0.1843
     74  C          8.6160   11.8970   26.8430 C.2   181  CYS181      0.2625
     75  O          9.5930   12.3580   26.2250 O.2   181  CYS181     -0.2714
     76  CB         7.8900   11.7370   29.3100 C.3   181  CYS181      0.0997
     77  SG         6.1390   11.2450   29.1920 S.3   181  CYS181     -0.0797
     78  N          7.3750   11.9970   26.3740 N.am  182  GLN182     -0.1963
     79  CA         7.0890   12.6990   25.0990 C.3   182  GLN182      0.1733
     80  C          7.6220   14.1510   25.1240 C.2   182  GLN182      0.2616
     81  O          7.3760   14.8890   26.0780 O.2   182  GLN182     -0.2715
     82  CB         5.5730   12.6790   24.8080 C.3   182  GLN182      0.0408
     83  CG         5.1540   13.1040   23.3930 C.3   182  GLN182      0.0908
     84  CD         3.6250   13.0770   23.1770 C.2   182  GLN182      0.2608
     85  OE1        3.0730   13.9380   22.4700 O.2   182  GLN182     -0.2717
     86  NE2        2.9380   12.0950   23.7810 N.am  182  GLN182     -0.0878
     87  N          8.3340   14.5490   24.0690 N.am  183  GLY183     -0.1955
     88  CA         8.9350   15.8940   23.9650 C.3   183  GLY183      0.1869
     89  C         10.4110   15.9610   24.3460 C.2   183  GLY183      0.2309
     90  O         11.1170   16.8770   23.9330 O.2   183  GLY183     -0.2863
     91  N         12.4380   13.6730   23.4560 N.3   185  SER185     -0.1217
     92  CA        13.1080   12.9800   22.3260 C.3   185  SER185      0.1889
     93  C         14.2020   13.7900   21.6490 C.2   185  SER185      0.2288
     94  O         14.0150   14.9770   21.4610 O.2   185  SER185     -0.2866
     95  CB        12.0930   12.5210   21.2840 C.3   185  SER185      0.2089
     96  OG        11.1920   11.6140   21.8710 O.3   185  SER185     -0.2183
     97  N         17.9450   10.4520   23.6120 N.3   203  VAL203     -0.1231
     98  CA        16.5640   10.0100   23.9310 C.3   203  VAL203      0.1692
     99  C         15.8520    9.5220   22.6330 C.2   203  VAL203      0.2593
    100  O         15.7270   10.2830   21.6580 O.2   203  VAL203     -0.2718
    101  CB        15.7780   11.1360   24.6720 C.3   203  VAL203      0.0266
    102  CG1       14.3420   10.6850   25.0370 C.3   203  VAL203      0.0020
    103  CG2       16.5260   11.5450   25.9020 C.3   203  VAL203      0.0020
    104  N         15.4250    8.2560   22.6000 N.am  204  SER204     -0.1938
    105  CA        14.8990    7.6710   21.3280 C.3   204  SER204      0.2055
    106  C         13.4320    7.2520   21.3860 C.2   204  SER204      0.2643
    107  O         12.6070    7.7760   20.6270 O.2   204  SER204     -0.2714
    108  CB        15.7810    6.5060   20.7950 C.3   204  SER204      0.2130
    109  OG        15.4810    6.1740   19.4180 O.3   204  SER204     -0.2179
    110  N         13.1080    6.3060   22.2610 N.am  205  TRP205     -0.1959
    111  CA        11.7330    5.8150   22.3500 C.3   205  TRP205      0.1771
    112  C         11.3780    5.0710   23.6330 C.2   205  TRP205      0.2620
    113  O         12.2560    4.7230   24.4350 O.2   205  TRP205     -0.2715
    114  CB        11.3880    4.9420   21.1470 C.3   205  TRP205      0.0590
    115  CG        12.1850    3.6780   20.9470 C.ar  205  TRP205      0.0006
    116  CD1       13.3180    3.5490   20.2070 C.ar  205  TRP205      0.0946
    117  CD2       11.8470    2.3530   21.3970 C.ar  205  TRP205      0.0152
    118  NE1       13.7380    2.2460   20.1990 N.ar  205  TRP205     -0.2442
    119  CE2       12.8530    1.4830   20.9160 C.ar  205  TRP205      0.0810
    120  CE3       10.7970    1.8190   22.1630 C.ar  205  TRP205      0.0012
    121  CZ2       12.8530    0.0940   21.1850 C.ar  205  TRP205      0.0191
    122  CZ3       10.8000    0.4380   22.4480 C.ar  205  TRP205      0.0001
    123  CH2       11.8260   -0.4050   21.9610 C.ar  205  TRP205      0.0015
    124  N         10.0740    4.8260   23.8090 N.am  206  GLY206     -0.1940
    125  CA         9.5780    4.1120   24.9870 C.3   206  GLY206      0.2014
    126  C          8.1170    3.7530   24.8650 C.2   206  GLY206      0.2639
    127  O          7.3820    4.4060   24.1220 O.2   206  GLY206     -0.2714
    128  N          7.7040    2.7150   25.5940 N.am  207  GLU207     -0.1963
    129  CA         6.3030    2.2400   25.5840 C.3   207  GLU207      0.1733
    130  C          5.6150    2.9890   26.7060 C.2   207  GLU207      0.2617
    131  O          5.5680    2.5480   27.8760 O.2   207  GLU207     -0.2715
    132  CB         6.2410    0.7220   25.7460 C.3   207  GLU207      0.0429
    133  CG         6.9230   -0.0480   24.6350 C.3   207  GLU207      0.1163
    134  CD         6.8090   -1.5460   24.8120 C.2   207  GLU207      0.3649
    135  OE1        5.6610   -2.0410   24.9310 O.co2 207  GLU207     -0.2457
    136  OE2        7.8590   -2.2390   24.8320 O.co2 207  GLU207     -0.2457
    137  N          5.1560    4.1810   26.3410 N.am  208  GLY208     -0.1940
    138  CA         4.6430    5.1420   27.3050 C.3   208  GLY208      0.2014
    139  C          5.7970    5.7460   28.0950 C.2   208  GLY208      0.2639
    140  O          6.9510    5.7670   27.6470 O.2   208  GLY208     -0.2714
    141  N          5.4700    6.2390   29.2720 N.am  209  CYS209     -0.1967
    142  CA         6.4250    6.8600   30.1420 C.3   209  CYS209      0.1712
    143  C          6.2310    6.2050   31.4840 C.2   209  CYS209      0.2296
    144  O          5.1030    6.0830   31.9420 O.2   209  CYS209     -0.2864
    145  CB         6.1290    8.3600   30.2780 C.3   209  CYS209      0.0983
    146  SG         6.0880    9.2320   28.7080 S.3   209  CYS209     -0.0798
    147  N         11.2880    0.0290   30.1330 N.3   215  TYR215     -0.1227
    148  CA        12.4340    0.9330   30.3160 C.3   215  TYR215      0.1736
    149  C         12.4810    1.9890   29.1910 C.2   215  TYR215      0.2596
    150  O         11.7120    1.9050   28.2180 O.2   215  TYR215     -0.2718
    151  CB        13.7530    0.1390   30.4040 C.3   215  TYR215      0.0548
    152  CG        13.7320   -0.9700   31.4390 C.ar  215  TYR215     -0.0200
    153  CD1       13.9860   -0.7000   32.7800 C.ar  215  TYR215     -0.0009
    154  CD2       13.4340   -2.2890   31.0760 C.ar  215  TYR215     -0.0009
    155  CE1       13.9440   -1.6990   33.7400 C.ar  215  TYR215      0.0417
    156  CE2       13.3930   -3.3030   32.0280 C.ar  215  TYR215      0.0417
    157  CZ        13.6470   -3.0010   33.3590 C.ar  215  TYR215      0.1957
    158  OH        13.6200   -4.0020   34.3170 O.3   215  TYR215     -0.2866
    159  N         13.3570    2.9930   29.3560 N.am  216  GLY216     -0.1942
    160  CA        13.5890    4.0110   28.3470 C.3   216  GLY216      0.2014
    161  C         14.6340    3.5150   27.3580 C.2   216  GLY216      0.2639
    162  O         15.6480    2.9190   27.7520 O.2   216  GLY216     -0.2714
    163  N         14.3980    3.7510   26.0740 N.am  217  ILE217     -0.1963
    164  CA        15.3460    3.3120   25.0590 C.3   217  ILE217      0.1727
    165  C         16.0930    4.4980   24.3790 C.2   217  ILE217      0.2616
    166  O         15.4850    5.4830   23.8950 O.2   217  ILE217     -0.2715
    167  CB        14.6970    2.3440   24.0050 C.3   217  ILE217      0.0290
    168  CG1       13.6610    1.4050   24.6570 C.3   217  ILE217      0.0022
    169  CG2       15.7740    1.5300   23.2940 C.3   217  ILE217      0.0023
    170  CD1       14.2350    0.3130   25.6030 C.3   217  ILE217      0.0001
    171  N         17.4210    4.3680   24.3410 N.am  218  TYR218     -0.1974
    172  CA        18.3140    5.4120   23.8340 C.3   218  TYR218      0.1639
    173  C         19.2100    4.8890   22.7750 C.2   218  TYR218      0.2290
    174  O         19.6160    3.7150   22.8110 O.2   218  TYR218     -0.2864
    175  CB        19.2280    5.9400   24.9640 C.3   218  TYR218      0.0560
    176  CG        18.4640    6.4060   26.1650 C.ar  218  TYR218     -0.0198
    177  CD1       17.8910    5.4750   27.0610 C.ar  218  TYR218     -0.0009
    178  CD2       18.2850    7.7760   26.4080 C.ar  218  TYR218     -0.0009
    179  CE1       17.1510    5.9060   28.1780 C.ar  218  TYR218      0.0417
    180  CE2       17.5520    8.2110   27.5040 C.ar  218  TYR218      0.0417
    181  CZ        16.9760    7.2760   28.3840 C.ar  218  TYR218      0.1957
    182  OH        16.2500    7.7390   29.4730 O.3   218  TYR218     -0.2866
@<TRIPOS>BOND
     1    28    26   ar
     2    19    18    1
     3    26    27   ar
     4    26    25    1
     5    18    17    1
     6    17    16    1
     7    25    24    1
     8    16    15    1
     9    15    12    1
    10    11    12    1
    11    24    21    1
    12    12    13    1
    13    20    21    1
    14    20    13   am
    15    21    22    1
    16    13    14    2
    17    22    29   am
    18    22    23    2
    19    29    30    1
    20    34    33    1
    21    35    33    1
    22     2     1    1
    23     2     3    1
    24     2     5    1
    25    33    30    1
    26     4     3    2
    27    30    31    1
    28    36    37    1
    29    36    31   am
    30     5     6    1
    31    44    42   ar
    32    44    46   ar
    33    37    38    1
    34    37    40    1
    35    38    39    2
    36    42    41   ar
    37    31    32    2
    38    47    46    1
    39    46    45   ar
    40    41    40    1
    41    41    43   ar
    42     6     8   ar
    43     6     7   ar
    44     8    10   ar
    45    45    43   ar
    46     7     9   ar
    47    10     9   ar
    48    56    54   ar
    49    56    58   ar
    50    54    53   ar
    51    58    57   ar
    52   109   108    1
    53    53    52    1
    54    53    55   ar
    55    52    49    1
    56    49    50    1
    57    49    48    1
    58    50    51    2
    59   118   116   ar
    60   118   119   ar
    61   116   115   ar
    62   107   106    2
    63    57    55   ar
    64   108   105    1
    65   119   121   ar
    66   119   117   ar
    67   115   114    1
    68   115   117   ar
    69   114   111    1
    70   121   123   ar
    71    95    96    1
    72    95    92    1
    73   105   106    1
    74   105   104    1
    75   106   110   am
    76   117   120   ar
    77    94    93    2
    78    93    92    1
    79   100    99    2
    80   123   122   ar
    81   120   122   ar
    82   110   111    1
    83    92    91    1
    84   111   112    1
    85    85    84    2
    86   104    99   am
    87    99    98    1
    88   173   174    2
    89   173   172    1
    90    84    83    1
    91    84    86   am
    92   169   167    1
    93    83    82    1
    94    97    98    1
    95   112   124   am
    96   112   113    2
    97   124   125    1
    98   172   171    1
    99   172   175    1
   100   166   165    2
   101    98   101    1
   102    90    89    2
   103    88    87    1
   104    88    89    1
   105   167   168    1
   106   167   164    1
   107    87    80   am
   108   127   126    2
   109   171   165   am
   110   165   164    1
   111   133   134    1
   112   133   132    1
   113   168   170    1
   114   101   102    1
   115   101   103    1
   116    82    79    1
   117   134   136   ar
   118   134   135   ar
   119   126   125    1
   120   126   128   am
   121   175   176    1
   122   164   163    1
   123    79    80    1
   124    79    78    1
   125    80    81    2
   126   129   128    1
   127   129   132    1
   128   129   130    1
   129   163   161   am
   130   176   178   ar
   131   176   177   ar
   132    75    74    2
   133   137   130   am
   134   137   138    1
   135    78    74   am
   136   178   180   ar
   137   130   131    2
   138    74    73    1
   139   177   179   ar
   140   138   139    1
   141   161   162    2
   142   161   160    1
   143   180   181   ar
   144   140   139    2
   145   139   141   am
   146   179   181   ar
   147    73    72    1
   148    73    76    1
   149   150   149    2
   150   160   159    1
   151   181   182    1
   152    72    69   am
   153   146    77    1
   154   146   145    1
   155    71    68    1
   156   149   159   am
   157   149   148    1
   158    77    76    1
   159   141   142    1
   160    69    70    2
   161    69    68    1
   162    68    67    1
   163   147   148    1
   164   142   145    1
   165   142   143    1
   166   148   151    1
   167   151   152    1
   168    66    64   ar
   169    65    64   ar
   170    67    61   am
   171   154   152   ar
   172   154   156   ar
   173    64    63    1
   174   152   153   ar
   175   143   144    2
   176   156   157   ar
   177    61    62    2
   178    61    60    1
   179    63    60    1
   180   153   155   ar
   181    60    59    1
   182   157   155   ar
   183   157   158    1
