@<TRIPOS>MOLECULE
tmp/2j3eA00.pdb
 143 137 0 0 0
SMALL
GASTEIGER

@<TRIPOS>ATOM
      1  N         48.2200   31.3540   56.9820 N.3    44  GLY44      -0.1210
      2  CA        49.0140   32.4650   56.4790 C.3    44  GLY44       0.1956
      3  C         50.3570   32.6740   57.1550 C.2    44  GLY44       0.2612
      4  O         50.4780   32.5550   58.3800 O.2    44  GLY44      -0.2717
      5  N         51.3670   32.9870   56.3490 N.am   45  GLY45      -0.1942
      6  CA        52.6970   33.2240   56.8760 C.3    45  GLY45       0.2014
      7  C         53.5410   31.9930   57.1580 C.2    45  GLY45       0.2639
      8  O         54.6590   32.1090   57.6460 O.2    45  GLY45      -0.2714
      9  N         53.0240   30.8110   56.8470 N.am   46  VAL46      -0.1963
     10  CA        53.7590   29.5670   57.0910 C.3    46  VAL46       0.1727
     11  C         54.9890   29.3920   56.1960 C.2    46  VAL46       0.2617
     12  O         55.9640   28.7430   56.5840 O.2    46  VAL46      -0.2715
     13  CB        52.8470   28.3350   56.9140 C.3    46  VAL46       0.0290
     14  CG1       51.6740   28.4290   57.8610 C.3    46  VAL46       0.0023
     15  CG2       52.3640   28.2350   55.4760 C.3    46  VAL46       0.0023
     16  N         54.9230   29.9630   54.9940 N.am   47  GLY47      -0.1940
     17  CA        56.0330   29.8820   54.0630 C.3    47  GLY47       0.2014
     18  C         55.7180   29.2620   52.7220 C.2    47  GLY47       0.2639
     19  O         56.6020   28.6680   52.1020 O.2    47  GLY47      -0.2714
     20  N         54.4720   29.4010   52.2700 N.am   48  LYS48      -0.1963
     21  CA        54.0630   28.8330   50.9870 C.3    48  LYS48       0.1728
     22  C         54.7960   29.5460   49.8490 C.2    48  LYS48       0.2617
     23  O         55.5150   28.9210   49.0700 O.2    48  LYS48      -0.2715
     24  CB        52.5450   28.9810   50.7910 C.3    48  LYS48       0.0311
     25  CG        51.6890   28.3010   51.8520 C.3    48  LYS48       0.0038
     26  CD        50.1770   28.3880   51.5580 C.3    48  LYS48       0.0206
     27  CE        49.5730   29.7730   51.8240 C.3    48  LYS48       0.1093
     28  NZ        49.5960   30.1870   53.2580 N.3    48  LYS48      -0.1314
     29  N         54.6410   30.8640   49.7900 N.am   49  SER49      -0.1936
     30  CA        55.2760   31.6630   48.7590 C.3    49  SER49       0.2055
     31  C         56.7790   31.4630   48.7810 C.2    49  SER49       0.2643
     32  O         57.3940   31.2420   47.7410 O.2    49  SER49      -0.2714
     33  CB        54.9480   33.1430   48.9550 C.3    49  SER49       0.2130
     34  OG        53.5670   33.3960   48.7610 O.3    49  SER49      -0.2179
     35  N         57.3730   31.5310   49.9650 N.am   50  SER50      -0.1949
     36  CA        58.8120   31.3560   50.0860 C.3    50  SER50       0.1924
     37  C         59.2690   30.0320   49.4830 C.2    50  SER50       0.2314
     38  O         60.2450   29.9770   48.7320 O.2    50  SER50      -0.2863
     39  CB        59.2330   31.4190   51.5540 C.3    50  SER50       0.2116
     40  OG        59.0660   32.7170   52.0810 O.3    50  SER50      -0.2180
     41  N         55.4020   36.3780   45.5010 N.3    62  ARG62      -0.1231
     42  CA        55.8840   37.3480   46.4770 C.3    62  ARG62       0.1694
     43  C         55.6920   36.8960   47.9360 C.2    62  ARG62       0.2592
     44  O         54.6330   36.4220   48.3150 O.2    62  ARG62      -0.2718
     45  CB        55.1790   38.6870   46.2450 C.3    62  ARG62       0.0321
     46  CG        53.8320   38.5720   45.5200 C.3    62  ARG62       0.0489
     47  CD        52.9530   37.4830   46.1660 C.3    62  ARG62       0.2205
     48  NE        51.7830   37.0910   45.3560 N.pl3  62  ARG62      -0.0865
     49  CZ        51.8620   36.8050   44.0560 C.cat  62  ARG62       0.5346
     50  NH1       53.0340   36.8730   43.4320 N.pl3  62  ARG62       0.1354
     51  NH2       50.7940   36.4480   43.3690 N.pl3  62  ARG62       0.1354
     52  N         56.7320   37.0180   48.7470 N.am   63  VAL63      -0.1966
     53  CA        56.6230   36.6310   50.1470 C.3    63  VAL63       0.1727
     54  C         56.0820   37.8400   50.9350 C.2    63  VAL63       0.2617
     55  O         55.8370   38.8980   50.3420 O.2    63  VAL63      -0.2715
     56  CB        58.0070   36.1650   50.6980 C.3    63  VAL63       0.0290
     57  CG1       58.5450   35.0120   49.8470 C.3    63  VAL63       0.0023
     58  CG2       59.0100   37.3200   50.6690 C.3    63  VAL63       0.0023
     59  N         55.8870   37.6950   52.2500 N.am   64  SER64      -0.1936
     60  CA        55.3680   38.7990   53.0730 C.3    64  SER64       0.2040
     61  C         55.0620   38.4470   54.5270 C.2    64  SER64       0.2485
     62  O         54.5050   37.3940   54.8390 O.2    64  SER64      -0.2729
     63  CB        54.0860   39.3610   52.4510 C.3    64  SER64       0.2129
     64  OG        53.7220   40.6050   53.0260 O.3    64  SER64      -0.2179
     65  N         55.3920   39.3600   55.4420 N.am   65  PRO65      -0.2726
     66  CA        55.1170   39.0850   56.8470 C.3    65  PRO65       0.1402
     67  C         53.6120   39.1430   57.0260 C.2    65  PRO65       0.2269
     68  O         53.0230   38.2700   57.6540 O.2    65  PRO65      -0.2865
     69  CB        55.8240   40.2270   57.5570 C.3    65  PRO65       0.0296
     70  CG        55.6560   41.3550   56.5880 C.3    65  PRO65       0.0237
     71  CD        55.9520   40.7120   55.2680 C.3    65  PRO65       0.0939
     72  N         50.5630   38.4640   55.4730 N.3    67  GLN67      -0.1245
     73  CA        49.9000   37.7290   54.4120 C.3    67  GLN67       0.1566
     74  C         48.4300   37.6060   54.8060 C.2    67  GLN67       0.2260
     75  O         47.8570   36.5110   54.8940 O.2    67  GLN67      -0.2867
     76  CB        50.5460   36.3600   54.2110 C.3    67  GLN67       0.0367
     77  CG        51.7390   36.4020   53.2500 C.3    67  GLN67       0.0905
     78  CD        51.3440   36.7360   51.7920 C.2    67  GLN67       0.2608
     79  OE1       51.7910   37.7430   51.2210 O.2    67  GLN67      -0.2717
     80  NE2       50.5050   35.8850   51.1910 N.am   67  GLN67      -0.0878
     81  N         49.9580   28.7580   43.9740 N.3    89  ASP89      -0.1239
     82  CA        50.2740   29.2960   45.2780 C.3    89  ASP89       0.1674
     83  C         48.9650   29.8600   45.7050 C.2    89  ASP89       0.2266
     84  O         48.4810   30.8460   45.1510 O.2    89  ASP89      -0.2867
     85  CB        51.3130   30.4180   45.1700 C.3    89  ASP89       0.1410
     86  CG        51.6770   31.0300   46.5180 C.2    89  ASP89       0.3668
     87  OD1       52.4240   32.0300   46.5180 O.co2  89  ASP89      -0.2456
     88  OD2       51.2320   30.5270   47.5700 O.co2  89  ASP89      -0.2456
     89  N         46.5070   32.3720   52.1200 N.3    92  GLY92      -0.1225
     90  CA        46.2740   31.8120   53.4380 C.3    92  GLY92       0.1811
     91  C         44.8130   31.4310   53.6020 C.2    92  GLY92       0.2280
     92  O         43.9390   32.0510   52.9890 O.2    92  GLY92      -0.2866
     93  N         54.5120   25.6990   60.1350 N.3   124  ARG124     -0.1245
     94  CA        55.8690   26.0220   60.5110 C.3   124  ARG124      0.1563
     95  C         56.4330   25.0620   61.5120 C.2   124  ARG124      0.2260
     96  O         55.7200   24.5460   62.3600 O.2   124  ARG124     -0.2867
     97  CB        55.8970   27.4170   61.1020 C.3   124  ARG124      0.0307
     98  CG        55.3170   28.4460   60.1790 C.3   124  ARG124      0.0489
     99  CD        55.2220   29.7920   60.8420 C.3   124  ARG124      0.2205
    100  NE        56.4140   30.0970   61.6150 N.pl3 124  ARG124     -0.0865
    101  CZ        56.7840   31.3250   61.9390 C.cat 124  ARG124      0.5346
    102  NH1       56.0570   32.3600   61.5450 N.pl3 124  ARG124      0.1354
    103  NH2       57.8670   31.5170   62.6720 N.pl3 124  ARG124      0.1354
    104  N         58.3340   24.3620   57.4360 N.3   158  THR158     -0.1203
    105  CA        59.3520   25.3070   57.0300 C.3   158  THR158      0.1994
    106  C         60.0560   25.9030   58.2360 C.2   158  THR158      0.2617
    107  O         59.5760   25.8120   59.3640 O.2   158  THR158     -0.2717
    108  CB        58.7370   26.4180   56.1790 C.3   158  THR158      0.1784
    109  OG1       57.5250   26.8740   56.7870 O.3   158  THR158     -0.2211
    110  CG2       58.4150   25.8990   54.8050 C.3   158  THR158      0.0376
    111  N         61.2030   26.5150   57.9880 N.am  159  HIS159     -0.1975
    112  CA        62.0200   27.0440   59.0560 C.3   159  HIS159      0.1656
    113  C         62.5930   25.7540   59.5760 C.2   159  HIS159      0.2291
    114  O         62.6830   25.5420   60.7760 O.2   159  HIS159     -0.2864
    115  CB        61.2030   27.6710   60.1800 C.3   159  HIS159      0.0771
    116  CG        60.3330   28.8070   59.7540 C.ar  159  HIS159      0.0820
    117  ND1       59.1140   28.6200   59.1500 N.ar  159  HIS159     -0.2267
    118  CD2       60.4850   30.1440   59.9020 C.ar  159  HIS159      0.1154
    119  CE1       58.5420   29.7960   58.9480 C.ar  159  HIS159      0.1986
    120  NE2       59.3530   30.7340   59.3960 N.ar  159  HIS159     -0.2212
    121  N         63.8520   25.0000   54.4770 N.3   207  GLU207     -0.1231
    122  CA        64.4650   26.1900   55.0450 C.3   207  GLU207      0.1699
    123  C         64.7100   27.2360   53.9660 C.2   207  GLU207      0.2592
    124  O         65.8200   27.3890   53.4680 O.2   207  GLU207     -0.2718
    125  CB        65.7840   25.8250   55.7250 C.3   207  GLU207      0.0402
    126  CG        66.5450   27.0190   56.2580 C.3   207  GLU207      0.1161
    127  CD        65.6740   27.9280   57.1040 C.2   207  GLU207      0.3649
    128  OE1       65.1010   27.4400   58.0950 O.co2 207  GLU207     -0.2457
    129  OE2       65.5610   29.1290   56.7830 O.co2 207  GLU207     -0.2457
    130  N         63.6540   27.9630   53.6240 N.am  208  ASN208     -0.1960
    131  CA        63.6890   29.0020   52.5990 C.3   208  ASN208      0.1819
    132  C         64.6680   30.1690   52.8140 C.2   208  ASN208      0.2622
    133  O         65.1980   30.7300   51.8500 O.2   208  ASN208     -0.2715
    134  CB        62.2740   29.5520   52.4180 C.3   208  ASN208      0.1195
    135  CG        61.3350   28.5300   51.8490 C.2   208  ASN208      0.2630
    136  OD1       60.1230   28.6450   51.9590 O.2   208  ASN208     -0.2716
    137  ND2       61.8950   27.5220   51.2200 N.am  208  ASN208     -0.0877
    138  N         64.9060   30.5370   54.0680 N.am  209  SER209     -0.1950
    139  CA        65.7930   31.6510   54.3690 C.3   209  SER209      0.1924
    140  C         67.1050   31.6020   53.6150 C.2   209  SER209      0.2314
    141  O         67.5460   30.5370   53.1890 O.2   209  SER209     -0.2863
    142  CB        66.0880   31.7150   55.8590 C.3   209  SER209      0.2116
    143  OG        67.0350   32.7360   56.1090 O.3   209  SER209     -0.2180
@<TRIPOS>BOND
     1    51    49    1
     2    50    49    1
     3    81    82    1
     4    49    48    2
     5    84    83    2
     6    85    82    1
     7    85    86    1
     8    82    83    1
     9    48    47    1
    10    41    42    1
    11    46    47    1
    12    46    45    1
    13    45    42    1
    14    42    43    1
    15    86    87   ar
    16    86    88   ar
    17    32    31    2
    18    43    44    2
    19    43    52   am
    20    38    37    2
    21    52    53    1
    22    30    31    1
    23    30    33    1
    24    30    29    1
    25    34    33    1
    26    31    35   am
    27    23    22    2
    28    37    36    1
    29    29    22   am
    30    57    56    1
    31    22    21    1
    32    35    36    1
    33    36    39    1
    34    53    56    1
    35    53    54    1
    36    55    54    2
    37    58    56    1
    38    24    21    1
    39    24    25    1
    40    54    59   am
    41    21    20    1
    42    80    78   am
    43   137   135   am
    44    79    78    2
    45    39    40    1
    46    26    27    1
    47    26    25    1
    48    78    77    1
    49    27    28    1
    50   135   136    2
    51   135   134    1
    52   133   132    2
    53    19    18    2
    54    89    90    1
    55    59    60    1
    56    20    18   am
    57   134   131    1
    58    63    64    1
    59    63    60    1
    60   131   132    1
    61   131   130    1
    62    18    17    1
    63   132   138   am
    64    92    91    2
    65    60    61    1
    66   141   140    2
    67    77    76    1
    68    90    91    1
    69   124   123    2
    70   140   139    1
    71   130   123   am
    72   123   122    1
    73    17    16    1
    74   138   139    1
    75    76    73    1
    76   139   142    1
    77    73    74    1
    78    73    72    1
    79   121   122    1
    80    61    62    2
    81    61    65   am
    82   110   108    1
    83    74    75    2
    84    16    11   am
    85   122   125    1
    86    71    65    1
    87    71    70    1
    88    65    66    1
    89    15    13    1
    90   125   126    1
    91   142   143    1
    92   108   109    1
    93   108   105    1
    94    11    12    2
    95    11    10    1
    96   126   127    1
    97     5     6    1
    98     5     3   am
    99     2     1    1
   100     2     3    1
   101    70    69    1
   102   129   127   ar
   103    66    67    1
   104    66    69    1
   105     9    10    1
   106     9     7   am
   107     6     7    1
   108    13    10    1
   109    13    14    1
   110    67    68    2
   111   105   104    1
   112   105   106    1
   113   127   128   ar
   114     3     4    2
   115     7     8    2
   116   111   106   am
   117   111   112    1
   118   106   107    2
   119   119   117   ar
   120   119   120   ar
   121   112   113    1
   122   112   115    1
   123   117   116   ar
   124   120   118   ar
   125   113   114    2
   126   116   118   ar
   127   116   115    1
   128    93    94    1
   129    98    99    1
   130    98    97    1
   131    94    97    1
   132    94    95    1
   133    99   100    1
   134    95    96    2
   135   102   101    1
   136   100   101    2
   137   101   103    1
