@<TRIPOS>MOLECULE
tmp/2j3jA01.pdb
 99 93 0 0 0
SMALL
GASTEIGER

@<TRIPOS>ATOM
      1  N         32.7530    2.7020   84.3520 N.3    53  TYR53      -0.1241
      2  CA        33.1800    1.8660   83.2170 C.3    53  TYR53       0.1605
      3  C         33.2170    0.3770   83.5400 C.2    53  TYR53       0.2264
      4  O         33.2400   -0.4650   82.6430 O.2    53  TYR53      -0.2867
      5  CB        34.6120    2.2450   82.6770 C.3    53  TYR53       0.0534
      6  CG        35.9790    1.8790   83.3450 C.ar   53  TYR53      -0.0201
      7  CD1       36.6720    0.6470   83.0030 C.ar   53  TYR53      -0.0009
      8  CD2       36.6140    2.7700   84.2780 C.ar   53  TYR53      -0.0009
      9  CE1       37.9490    0.3400   83.5830 C.ar   53  TYR53       0.0417
     10  CE2       37.8840    2.4680   84.8580 C.ar   53  TYR53       0.0417
     11  CZ        38.5390    1.2530   84.5050 C.ar   53  TYR53       0.1957
     12  OH        39.7630    0.9350   85.0440 O.3    53  TYR53      -0.2866
     13  N         30.8250   -2.5880   82.2870 N.3    56  ILE56      -0.1245
     14  CA        31.0930   -3.0800   80.9170 C.3    56  ILE56       0.1561
     15  C         32.1400   -4.2130   80.9510 C.2    56  ILE56       0.2260
     16  O         32.0200   -5.1970   80.1980 O.2    56  ILE56      -0.2867
     17  CB        31.5090   -1.7800   80.0300 C.3    56  ILE56       0.0252
     18  CG1       30.2720   -0.8590   79.9200 C.3    56  ILE56       0.0019
     19  CG2       32.0310   -2.1100   78.6130 C.3    56  ILE56       0.0019
     20  CD1       28.9380   -1.3880   79.2800 C.3    56  ILE56       0.0001
     21  N         39.1890   -5.4440   76.5750 N.3    61  GLN61      -0.1245
     22  CA        39.0820   -5.2100   78.0060 C.3    61  GLN61       0.1566
     23  C         38.7040   -6.4780   78.8030 C.2    61  GLN61       0.2260
     24  O         39.6040   -7.3120   78.9550 O.2    61  GLN61      -0.2867
     25  CB        38.0680   -4.0420   78.2030 C.3    61  GLN61       0.0367
     26  CG        38.4060   -2.6300   77.6340 C.3    61  GLN61       0.0905
     27  CD        39.5550   -1.8340   78.2740 C.2    61  GLN61       0.2608
     28  OE1       39.6690   -1.6520   79.4940 O.2    61  GLN61      -0.2717
     29  NE2       40.4370   -1.3150   77.4180 N.am   61  GLN61      -0.0878
     30  N         41.3070    2.0600   88.8310 N.3    72  TYR72      -0.1241
     31  CA        42.2130    3.1620   89.1800 C.3    72  TYR72       0.1605
     32  C         42.3490    3.4060   90.6830 C.2    72  TYR72       0.2264
     33  O         41.4420    3.0800   91.4560 O.2    72  TYR72      -0.2867
     34  CB        41.7460    4.4810   88.4950 C.3    72  TYR72       0.0534
     35  CG        42.0840    4.5200   87.0190 C.ar   72  TYR72      -0.0201
     36  CD1       41.2670    3.8560   86.0380 C.ar   72  TYR72      -0.0009
     37  CD2       43.2760    5.1810   86.6070 C.ar   72  TYR72      -0.0009
     38  CE1       41.6390    3.8510   84.6560 C.ar   72  TYR72       0.0417
     39  CE2       43.6620    5.1720   85.2150 C.ar   72  TYR72       0.0417
     40  CZ        42.8390    4.5090   84.2480 C.ar   72  TYR72       0.1957
     41  OH        43.2070    4.5350   82.9170 O.3    72  TYR72      -0.2866
     42  N         46.3330    1.9480   87.0730 N.3    94  ILE94      -0.1245
     43  CA        45.6080    0.6820   87.1950 C.3    94  ILE94       0.1561
     44  C         46.3580   -0.3290   88.0550 C.2    94  ILE94       0.2260
     45  O         47.3430   -0.9780   87.7080 O.2    94  ILE94      -0.2867
     46  CB        45.2560    0.0680   85.7380 C.3    94  ILE94       0.0252
     47  CG1       44.4960    1.1100   84.8860 C.3    94  ILE94       0.0019
     48  CG2       44.3140   -1.1670   85.8550 C.3    94  ILE94       0.0019
     49  CD1       44.3280    0.8780   83.3570 C.3    94  ILE94       0.0001
     50  N         41.8390   10.3030   86.3300 N.3   129  MET129     -0.1301
     51  CA        41.1630    9.9490   85.0810 C.3   129  MET129      0.1256
     52  C         39.7590   10.6040   84.9560 C.3   129  MET129      0.2010
     53  O         39.4590   10.8320   83.7800 O.3   129  MET129     -0.2188
     54  CB        41.1710    8.4030   85.0470 C.3   129  MET129      0.0333
     55  CG        40.5430    7.6300   83.9030 C.3   129  MET129      0.0592
     56  SD        38.7460    7.7070   83.8840 S.3   129  MET129     -0.1393
     57  CE        38.3740    6.4220   85.0210 C.3   129  MET129      0.0692
     58  N         30.6320   11.4300   76.5630 N.3   245  CYS245     -0.1221
     59  CA        31.5280   10.8970   77.5760 C.3   245  CYS245      0.1808
     60  C         31.0680    9.5460   78.0400 C.2   245  CYS245      0.2601
     61  O         31.8340    8.6040   77.8310 O.2   245  CYS245     -0.2717
     62  CB        31.5730   11.9210   78.6680 C.3   245  CYS245      0.0970
     63  SG        32.4980   11.6000   80.1730 S.3   245  CYS245     -0.0800
     64  N         29.8640    9.4350   78.5980 N.am  246  GLY246     -0.1957
     65  CA        29.3450    8.1380   78.9810 C.3   246  GLY246      0.1869
     66  C         27.8920    7.9730   78.7040 C.2   246  GLY246      0.2309
     67  O         27.2340    8.9050   78.2290 O.2   246  GLY246     -0.2863
     68  N         24.4090    0.9960   80.5930 N.3   251  TYR251     -0.1241
     69  CA        25.4400    0.0400   81.0210 C.3   251  TYR251      0.1605
     70  C         24.9380   -1.1760   81.7790 C.2   251  TYR251      0.2264
     71  O         25.2950   -2.3150   81.4820 O.2   251  TYR251     -0.2867
     72  CB        26.4860    0.7630   81.8940 C.3   251  TYR251      0.0534
     73  CG        27.3320    1.9100   81.3430 C.ar  251  TYR251     -0.0201
     74  CD1       28.0480    2.6850   82.2970 C.ar  251  TYR251     -0.0009
     75  CD2       27.4700    2.2290   79.9390 C.ar  251  TYR251     -0.0009
     76  CE1       28.8940    3.7570   81.8750 C.ar  251  TYR251      0.0417
     77  CE2       28.3250    3.2970   79.5090 C.ar  251  TYR251      0.0417
     78  CZ        29.0320    4.0540   80.4850 C.ar  251  TYR251      0.1957
     79  OH        29.8910    5.0340   80.0500 O.3   251  TYR251     -0.2866
     80  N         37.3690    8.9820   74.0540 N.3   276  VAL276     -0.1231
     81  CA        37.9950    8.2130   75.1540 C.3   276  VAL276      0.1692
     82  C         39.1430    9.0960   75.7390 C.2   276  VAL276      0.2592
     83  O         39.9480    9.6100   74.9580 O.2   276  VAL276     -0.2718
     84  CB        38.5320    6.8250   74.6160 C.3   276  VAL276      0.0266
     85  CG1       39.2730    6.0040   75.6770 C.3   276  VAL276      0.0020
     86  CG2       37.3580    5.9140   74.2770 C.3   276  VAL276      0.0020
     87  N         39.2750    9.2810   77.0870 N.am  277  VAL277     -0.1966
     88  CA        40.2900   10.0530   77.8730 C.3   277  VAL277      0.1727
     89  C         41.7750    9.6970   77.6160 C.2   277  VAL277      0.2616
     90  O         42.6190   10.5950   77.6010 O.2   277  VAL277     -0.2715
     91  CB        39.8500    9.9030   79.4060 C.3   277  VAL277      0.0290
     92  CG1       40.0190    8.5100   79.9750 C.3   277  VAL277      0.0023
     93  CG2       40.6460   10.8030   80.2490 C.3   277  VAL277      0.0023
     94  N         42.0140    8.3840   77.3460 N.am  278  SER278     -0.1950
     95  CA        43.2840    7.7090   77.0970 C.3   278  SER278      0.1924
     96  C         44.1690    8.2010   75.9620 C.2   278  SER278      0.2314
     97  O         45.4180    8.1180   75.9720 O.2   278  SER278     -0.2863
     98  CB        43.0110    6.2280   76.8890 C.3   278  SER278      0.2116
     99  OG        42.2750    5.6830   77.9780 O.3   278  SER278     -0.2180
@<TRIPOS>BOND
     1    80    81    1
     2    86    84    1
     3    84    81    1
     4    84    85    1
     5    83    82    2
     6    81    82    1
     7    82    87   am
     8    96    97    2
     9    96    95    1
    10    58    59    1
    11    21    22    1
    12    98    95    1
    13    98    99    1
    14    87    88    1
    15    95    94    1
    16    94    89   am
    17    29    27   am
    18    59    60    1
    19    59    62    1
    20    90    89    2
    21    89    88    1
    22    26    25    1
    23    26    27    1
    24    61    60    2
    25    88    91    1
    26    22    25    1
    27    22    23    1
    28    60    64   am
    29    67    66    2
    30    27    28    2
    31    64    65    1
    32    19    17    1
    33    62    63    1
    34    66    65    1
    35    23    24    2
    36    20    18    1
    37    91    92    1
    38    91    93    1
    39    77    75   ar
    40    77    78   ar
    41    18    17    1
    42    75    73   ar
    43    17    14    1
    44    79    78    1
    45    16    15    2
    46    78    76   ar
    47    68    69    1
    48    14    15    1
    49    14    13    1
    50    69    70    1
    51    69    72    1
    52    73    72    1
    53    73    74   ar
    54    71    70    2
    55    76    74   ar
    56     4     3    2
    57     5     2    1
    58     5     6    1
    59    41    40    1
    60     7     6   ar
    61     7     9   ar
    62     2     3    1
    63     2     1    1
    64     6     8   ar
    65    49    47    1
    66     9    11   ar
    67    53    52    1
    68    56    55    1
    69    56    57    1
    70    55    54    1
    71    40    38   ar
    72    40    39   ar
    73     8    10   ar
    74    11    10   ar
    75    11    12    1
    76    38    36   ar
    77    47    46    1
    78    52    51    1
    79    54    51    1
    80    51    50    1
    81    39    37   ar
    82    46    48    1
    83    46    43    1
    84    36    35   ar
    85    37    35   ar
    86    35    34    1
    87    42    43    1
    88    43    44    1
    89    45    44    2
    90    34    31    1
    91    30    31    1
    92    31    32    1
    93    32    33    2
