@<TRIPOS>MOLECULE
tmp/2j3kB01.pdb
 141 135 0 0 0
SMALL
GASTEIGER

@<TRIPOS>ATOM
      1  N         13.2620   17.4320   51.5110 N.3    53  TYR53      -0.1241
      2  CA        13.0610   18.4330   52.6040 C.3    53  TYR53       0.1605
      3  C         11.6150   18.9470   52.7270 C.2    53  TYR53       0.2264
      4  O         11.0640   19.4300   53.7410 O.2    53  TYR53      -0.2867
      5  CB        13.9320   19.7230   52.4640 C.3    53  TYR53       0.0534
      6  CG        13.8290   20.7250   51.2840 C.ar   53  TYR53      -0.0201
      7  CD1       12.8820   21.8260   51.3100 C.ar   53  TYR53      -0.0009
      8  CD2       14.6390   20.5450   50.1070 C.ar   53  TYR53      -0.0009
      9  CE1       12.7330   22.7030   50.1860 C.ar   53  TYR53       0.0417
     10  CE2       14.4950   21.4280   48.9900 C.ar   53  TYR53       0.0417
     11  CZ        13.5450   22.4800   49.0390 C.ar   53  TYR53       0.1957
     12  OH        13.3680   23.2590   47.9390 O.3    53  TYR53      -0.2866
     13  N          9.3260   17.9750   55.3840 N.3    56  ILE56      -0.1231
     14  CA         9.2760   18.7330   56.6480 C.3    56  ILE56       0.1692
     15  C          9.1870   20.2730   56.4740 C.2    56  ILE56       0.2591
     16  O          9.5560   21.0810   57.3520 O.2    56  ILE56      -0.2718
     17  CB        10.4800   18.3190   57.6280 C.3    56  ILE56       0.0266
     18  CG1       11.8860   18.4340   57.0210 C.3    56  ILE56       0.0019
     19  CG2        9.9820   16.9550   58.2510 C.3    56  ILE56       0.0020
     20  CD1       12.5610   17.2350   56.3960 C.3    56  ILE56       0.0001
     21  N          8.7610   20.6300   55.2240 N.am   57  ARG57      -0.1980
     22  CA         8.1130   21.9410   54.9760 C.3    57  ARG57       0.1597
     23  C          6.6090   21.7840   54.6930 C.2    57  ARG57       0.2287
     24  O          5.8630   22.7680   54.6490 O.2    57  ARG57      -0.2864
     25  CB         8.6710   22.6940   53.8090 C.3    57  ARG57       0.0334
     26  CG        10.0660   23.2360   53.9460 C.3    57  ARG57       0.0492
     27  CD        10.3850   24.3460   52.9790 C.3    57  ARG57       0.2205
     28  NE         9.6460   25.5410   53.3260 N.pl3  57  ARG57      -0.0865
     29  CZ         9.5700   26.6250   52.5510 C.cat  57  ARG57       0.5346
     30  NH1       10.1990   26.7320   51.3520 N.pl3  57  ARG57       0.1354
     31  NH2        8.7110   27.5750   52.9560 N.pl3  57  ARG57       0.1354
     32  N         15.6480   24.8980   58.5740 N.3    68  LEU68      -0.1245
     33  CA        15.7310   24.8730   57.1130 C.3    68  LEU68       0.1561
     34  C         14.3910   25.2570   56.4910 C.2    68  LEU68       0.2260
     35  O         14.3270   25.8300   55.3980 O.2    68  LEU68      -0.2867
     36  CB        16.1810   23.4750   56.6350 C.3    68  LEU68       0.0270
     37  CG        15.5800   22.1290   57.0550 C.3    68  LEU68       0.0019
     38  CD1       14.6080   21.5570   56.0300 C.3    68  LEU68       0.0001
     39  CD2       16.7240   21.1580   57.1440 C.3    68  LEU68       0.0001
     40  N         10.4670   27.0090   56.8030 N.3    70  GLN70      -0.1245
     41  CA         9.7380   28.2290   57.0990 C.3    70  GLN70       0.1566
     42  C          8.2770   27.8160   57.3350 C.2    70  GLN70       0.2260
     43  O          7.4600   28.5880   57.8620 O.2    70  GLN70      -0.2867
     44  CB         9.8100   29.2100   55.9010 C.3    70  GLN70       0.0367
     45  CG        11.1030   29.9250   55.4590 C.3    70  GLN70       0.0905
     46  CD        12.1160   29.2060   54.5600 C.2    70  GLN70       0.2608
     47  OE1       12.1180   29.3510   53.3380 O.2    70  GLN70      -0.2717
     48  NE2       13.0650   28.4640   55.1230 N.am   70  GLN70      -0.0878
     49  N         13.2750   24.4390   44.7380 N.3    81  TYR81      -0.1241
     50  CA        14.4080   24.5700   43.8250 C.3    81  TYR81       0.1605
     51  C         14.1060   24.0830   42.4170 C.2    81  TYR81       0.2264
     52  O         13.4120   23.1030   42.1690 O.2    81  TYR81      -0.2867
     53  CB        15.6360   23.8210   44.3890 C.3    81  TYR81       0.0534
     54  CG        16.4070   24.5340   45.5090 C.ar   81  TYR81      -0.0201
     55  CD1       16.3810   24.0620   46.8650 C.ar   81  TYR81      -0.0009
     56  CD2       17.2240   25.6730   45.2090 C.ar   81  TYR81      -0.0009
     57  CE1       17.1630   24.7130   47.8930 C.ar   81  TYR81       0.0417
     58  CE2       18.0060   26.3310   46.2160 C.ar   81  TYR81       0.0417
     59  CZ        17.9770   25.8470   47.5520 C.ar   81  TYR81       0.1957
     60  OH        18.7770   26.4750   48.4880 O.3    81  TYR81      -0.2866
     61  N         15.1040   29.0810   44.5130 N.3   103  ILE103     -0.1245
     62  CA        13.8060   28.8240   45.1770 C.3   103  ILE103      0.1561
     63  C         12.6350   29.7650   44.7690 C.2   103  ILE103      0.2260
     64  O         12.4120   30.9430   45.1020 O.2   103  ILE103     -0.2867
     65  CB        14.2120   28.7420   46.7440 C.3   103  ILE103      0.0252
     66  CG1       13.1050   27.9910   47.4470 C.3   103  ILE103      0.0019
     67  CG2       14.4470   30.0860   47.4580 C.3   103  ILE103      0.0019
     68  CD1       13.6790   26.9150   48.4060 C.3   103  ILE103      0.0001
     69  N         21.7830   21.9490   43.6820 N.3   138  MET138     -0.1301
     70  CA        21.7030   21.6650   45.0970 C.3   138  MET138      0.1256
     71  C         21.9400   20.2140   45.4250 C.3   138  MET138      0.2010
     72  O         22.8200   20.1890   46.2740 O.3   138  MET138     -0.2188
     73  CB        20.3450   22.2430   45.5820 C.3   138  MET138      0.0333
     74  CG        20.0890   22.4380   47.0500 C.3   138  MET138      0.0592
     75  SD        19.6420   20.9540   47.9460 S.3   138  MET138     -0.1393
     76  CE        17.9290   20.8010   47.5900 C.3   138  MET138      0.0692
     77  N         23.1880   13.9580   56.4070 N.3   254  CYS254     -0.1221
     78  CA        22.6240   14.6580   55.2670 C.3   254  CYS254      0.1808
     79  C         21.1190   14.8550   55.3870 C.2   254  CYS254      0.2601
     80  O         20.6190   15.9860   55.4430 O.2   254  CYS254     -0.2717
     81  CB        23.0640   13.8340   54.0870 C.3   254  CYS254      0.0970
     82  SG        22.6380   14.4890   52.4830 S.3   254  CYS254     -0.0800
     83  N         20.5060   13.6800   55.5000 N.am  255  GLY255     -0.1957
     84  CA        19.1110   13.4490   55.6880 C.3   255  GLY255      0.1869
     85  C         18.9710   12.1510   56.3950 C.2   255  GLY255      0.2309
     86  O         19.9240   11.4290   56.6580 O.2   255  GLY255     -0.2863
     87  N         10.9180   11.0090   58.2420 N.3   260  TYR260     -0.1241
     88  CA        10.1260   12.1620   57.8220 C.3   260  TYR260      0.1605
     89  C          8.6110   12.0170   57.6960 C.2   260  TYR260      0.2264
     90  O          7.8430   12.9440   57.9670 O.2   260  TYR260     -0.2867
     91  CB        10.6820   12.6380   56.4810 C.3   260  TYR260      0.0534
     92  CG        12.1200   13.1450   56.2770 C.ar  260  TYR260     -0.0201
     93  CD1       13.1150   13.2950   57.3100 C.ar  260  TYR260     -0.0009
     94  CD2       12.4720   13.5490   54.9440 C.ar  260  TYR260     -0.0009
     95  CE1       14.4120   13.8550   57.0140 C.ar  260  TYR260      0.0417
     96  CE2       13.7600   14.1020   54.6540 C.ar  260  TYR260      0.0417
     97  CZ        14.7290   14.2820   55.6850 C.ar  260  TYR260      0.1957
     98  OH        15.8780   15.0870   55.3930 O.3   260  TYR260     -0.2866
     99  N         24.6970   18.6090   58.7930 N.3   284  PHE284     -0.1227
    100  CA        24.8690   19.8210   57.9920 C.3   284  PHE284      0.1736
    101  C         23.6150   20.0770   57.1370 C.2   284  PHE284      0.2595
    102  O         22.8760   19.1520   56.7590 O.2   284  PHE284     -0.2718
    103  CB        26.1760   19.6570   57.0970 C.3   284  PHE284      0.0547
    104  CG        26.1280   18.6290   55.9530 C.ar  284  PHE284     -0.0202
    105  CD1       25.7740   19.0660   54.6120 C.ar  284  PHE284     -0.0042
    106  CD2       26.2790   17.2340   56.2360 C.ar  284  PHE284     -0.0042
    107  CE1       25.5470   18.1110   53.5980 C.ar  284  PHE284     -0.0003
    108  CE2       26.0570   16.2900   55.2030 C.ar  284  PHE284     -0.0003
    109  CZ        25.6830   16.7250   53.8920 C.ar  284  PHE284     -0.0000
    110  N         23.4490   21.3520   56.7900 N.am  285  VAL285     -0.1966
    111  CA        22.5520   21.7470   55.7170 C.3   285  VAL285      0.1727
    112  C         23.5350   22.2850   54.6510 C.2   285  VAL285      0.2616
    113  O         24.6270   22.7300   55.0190 O.2   285  VAL285     -0.2715
    114  CB        21.5390   22.8310   56.2170 C.3   285  VAL285      0.0290
    115  CG1       20.5200   23.2490   55.1760 C.3   285  VAL285      0.0023
    116  CG2       20.5590   22.2160   57.2030 C.3   285  VAL285      0.0023
    117  N         23.2140   22.2430   53.3290 N.am  286  VAL286     -0.1963
    118  CA        24.0580   22.7740   52.2440 C.3   286  VAL286      0.1727
    119  C         24.1540   24.2850   52.2680 C.2   286  VAL286      0.2616
    120  O         25.2290   24.7840   51.9420 O.2   286  VAL286     -0.2715
    121  CB        23.6300   22.5260   50.7850 C.3   286  VAL286      0.0290
    122  CG1       24.9170   22.0170   50.2280 C.3   286  VAL286      0.0023
    123  CG2       22.4350   21.6710   50.5170 C.3   286  VAL286      0.0023
    124  N         23.0700   24.9590   52.7080 N.am  287  SER287     -0.1950
    125  CA        22.9190   26.3930   52.9070 C.3   287  SER287      0.1924
    126  C         24.1110   27.2000   53.3980 C.2   287  SER287      0.2314
    127  O         24.4570   28.2320   52.8240 O.2   287  SER287     -0.2863
    128  CB        21.7870   26.5980   53.8490 C.3   287  SER287      0.2116
    129  OG        20.5090   26.5200   53.2340 O.3   287  SER287     -0.2180
    130  N         27.3330   27.4620   50.3480 N.3   290  TYR290     -0.1241
    131  CA        27.0850   28.1590   49.0840 C.3   290  TYR290      0.1605
    132  C         27.9980   29.2990   48.5820 C.2   290  TYR290      0.2264
    133  O         27.7850   29.9520   47.5450 O.2   290  TYR290     -0.2867
    134  CB        25.6580   28.6340   49.1990 C.3   290  TYR290      0.0534
    135  CG        24.5320   27.6610   48.8760 C.ar  290  TYR290     -0.0201
    136  CD1       23.2360   28.0050   49.3570 C.ar  290  TYR290     -0.0009
    137  CD2       24.6810   26.4940   48.0600 C.ar  290  TYR290     -0.0009
    138  CE1       22.0940   27.2020   49.0320 C.ar  290  TYR290      0.0417
    139  CE2       23.5590   25.6880   47.7350 C.ar  290  TYR290      0.0417
    140  CZ        22.2880   26.0510   48.2280 C.ar  290  TYR290      0.1957
    141  OH        21.2360   25.2380   47.9620 O.3   290  TYR290     -0.2866
@<TRIPOS>BOND
     1    52    51    2
     2    51    50    1
     3    69    70    1
     4    50    53    1
     5    50    49    1
     6    53    54    1
     7    61    62    1
     8    63    64    2
     9    63    62    1
    10    70    71    1
    11    70    73    1
    12    62    65    1
    13    56    54   ar
    14    56    58   ar
    15    71    72    1
    16    54    55   ar
    17    73    74    1
    18    58    59   ar
    19    65    66    1
    20    65    67    1
    21    55    57   ar
    22    74    75    1
    23    66    68    1
    24   133   132    2
    25    59    57   ar
    26    59    60    1
    27    76    75    1
    28   139   137   ar
    29   139   140   ar
    30    12    11    1
    31   141   140    1
    32   137   135   ar
    33   140   138   ar
    34   132   131    1
    35   135   134    1
    36   135   136   ar
    37    10    11   ar
    38    10     8   ar
    39   138   136   ar
    40    11     9   ar
    41   131   134    1
    42   131   130    1
    43     8     6   ar
    44     9     7   ar
    45   122   121    1
    46   123   121    1
    47   121   118    1
    48     6     7   ar
    49     6     5    1
    50    30    29    1
    51     1     2    1
    52   120   119    2
    53   118   119    1
    54   118   117    1
    55   119   124   am
    56     5     2    1
    57    82    81    1
    58    29    31    1
    59    29    28    2
    60     2     3    1
    61   124   125    1
    62     3     4    2
    63   127   126    2
    64   125   126    1
    65   125   128    1
    66    27    28    1
    67    27    26    1
    68   129   128    1
    69   117   112   am
    70    47    46    2
    71   107   109   ar
    72   107   105   ar
    73    25    26    1
    74    25    22    1
    75   109   108   ar
    76    81    78    1
    77    46    48   am
    78    46    45    1
    79   105   104   ar
    80    24    23    2
    81   112   113    2
    82   112   111    1
    83    96    94   ar
    84    96    97   ar
    85    23    22    1
    86    94    92   ar
    87    22    21    1
    88   115   114    1
    89   108   106   ar
    90    21    15   am
    91    78    79    1
    92    78    77    1
    93    13    14    1
    94    79    80    2
    95    79    83   am
    96    98    97    1
    97    35    34    2
    98    45    44    1
    99    83    84    1
   100    97    95   ar
   101    84    85    1
   102   111   114    1
   103   111   110    1
   104    44    41    1
   105   104   106   ar
   106   104   103    1
   107    38    37    1
   108   114   116    1
   109    92    91    1
   110    92    93   ar
   111    85    86    2
   112    20    18    1
   113    15    14    1
   114    15    16    2
   115    91    88    1
   116    34    33    1
   117    36    37    1
   118    36    33    1
   119    14    17    1
   120   102   101    2
   121   110   101   am
   122    40    41    1
   123    95    93   ar
   124    18    17    1
   125    37    39    1
   126   103   100    1
   127    41    42    1
   128    33    32    1
   129   101   100    1
   130    42    43    2
   131    17    19    1
   132    89    88    1
   133    89    90    2
   134    88    87    1
   135   100    99    1
