@<TRIPOS>MOLECULE
tmp/2j3nA01.pdb
 208 199 0 0 0
SMALL
GASTEIGER

@<TRIPOS>ATOM
      1  N        -62.0070   85.7060   55.9010 N.3   154  GLU154     -0.1245
      2  CA       -62.4490   86.0300   57.2430 C.3   154  GLU154      0.1567
      3  C        -63.1160   84.8590   57.9630 C.2   154  GLU154      0.2260
      4  O        -63.1070   83.7450   57.4670 O.2   154  GLU154     -0.2867
      5  CB       -63.4050   87.2230   57.1570 C.3   154  GLU154      0.0388
      6  CG       -62.9080   88.3500   56.2310 C.3   154  GLU154      0.1160
      7  CD       -63.8260   89.5760   56.1870 C.2   154  GLU154      0.3649
      8  OE1      -63.4390   90.5560   55.5230 O.co2 154  GLU154     -0.2457
      9  OE2      -64.9200   89.5690   56.7990 O.co2 154  GLU154     -0.2457
     10  N        -67.6590   86.3460   63.6640 N.3   157  ARG157     -0.1245
     11  CA       -67.3170   87.1060   64.8540 C.3   157  ARG157      0.1563
     12  C        -68.3330   86.8690   65.9450 C.2   157  ARG157      0.2260
     13  O        -69.5180   86.8370   65.6550 O.2   157  ARG157     -0.2867
     14  CB       -67.3120   88.5880   64.5150 C.3   157  ARG157      0.0307
     15  CG       -67.8230   89.5190   65.6300 C.3   157  ARG157      0.0489
     16  CD       -68.0970   90.9140   65.0780 C.3   157  ARG157      0.2205
     17  NE       -67.1050   91.2530   64.0640 N.pl3 157  ARG157     -0.0865
     18  CZ       -67.4020   91.6930   62.8490 C.cat 157  ARG157      0.5346
     19  NH1      -68.6720   91.8620   62.4880 N.pl3 157  ARG157      0.1354
     20  NH2      -66.4240   91.9330   61.9860 N.pl3 157  ARG157      0.1354
     21  N        -70.1530   87.7920   69.8650 N.3   159  LEU159     -0.1245
     22  CA       -70.6000   88.9480   70.6300 C.3   159  LEU159      0.1561
     23  C        -69.6670   89.3260   71.7590 C.2   159  LEU159      0.2260
     24  O        -69.3260   90.4930   71.9370 O.2   159  LEU159     -0.2867
     25  CB       -71.9840   88.6700   71.2070 C.3   159  LEU159      0.0270
     26  CG       -73.1020   88.5640   70.1750 C.3   159  LEU159      0.0019
     27  CD1      -74.3120   87.9100   70.8050 C.3   159  LEU159      0.0001
     28  CD2      -73.4390   89.9680   69.6440 C.3   159  LEU159      0.0001
     29  N        -79.3060   85.8830   65.4280 N.3   187  VAL187     -0.1231
     30  CA       -78.8750   87.2010   65.8730 C.3   187  VAL187      0.1692
     31  C        -78.1140   87.8720   64.7440 C.2   187  VAL187      0.2593
     32  O        -77.0660   87.3840   64.3180 O.2   187  VAL187     -0.2718
     33  CB       -77.9580   87.1010   67.1280 C.3   187  VAL187      0.0266
     34  CG1      -77.4310   88.4770   67.5180 C.3   187  VAL187      0.0020
     35  CG2      -78.7280   86.4880   68.2800 C.3   187  VAL187      0.0020
     36  N        -78.6510   88.9950   64.2750 N.am  188  GLY188     -0.1942
     37  CA       -78.0320   89.7340   63.1880 C.3   188  GLY188      0.2014
     38  C        -79.0350   90.0350   62.0850 C.2   188  GLY188      0.2639
     39  O        -80.1370   89.4890   62.0850 O.2   188  GLY188     -0.2714
     40  N        -78.6610   90.8980   61.1440 N.am  189  ALA189     -0.1963
     41  CA       -79.5500   91.2670   60.0440 C.3   189  ALA189      0.1728
     42  C        -78.8150   91.4690   58.7230 C.2   189  ALA189      0.2617
     43  O        -79.2620   92.2340   57.8710 O.2   189  ALA189     -0.2715
     44  CB       -80.3310   92.5260   60.4010 C.3   189  ALA189      0.0334
     45  N        -77.6810   90.7910   58.5690 N.am  190  SER190     -0.1936
     46  CA       -76.8880   90.8660   57.3390 C.3   190  SER190      0.2055
     47  C        -77.5470   89.9080   56.3560 C.2   190  SER190      0.2643
     48  O        -78.5220   89.2170   56.7080 O.2   190  SER190     -0.2714
     49  CB       -75.4520   90.3870   57.5900 C.3   190  SER190      0.2130
     50  OG       -75.4180   89.0050   57.9640 O.3   190  SER190     -0.2179
     51  N        -77.0100   89.8310   55.1370 N.am  191  TYR191     -0.1973
     52  CA       -77.6260   88.9220   54.1800 C.3   191  TYR191      0.1639
     53  C        -77.5110   87.4910   54.6870 C.2   191  TYR191      0.2290
     54  O        -78.4160   86.6860   54.4880 O.2   191  TYR191     -0.2864
     55  CB       -77.0320   89.0640   52.7670 C.3   191  TYR191      0.0560
     56  CG       -75.5830   88.6930   52.5790 C.ar  191  TYR191     -0.0198
     57  CD1      -74.5860   89.6690   52.5920 C.ar  191  TYR191     -0.0009
     58  CD2      -75.2130   87.3690   52.3210 C.ar  191  TYR191     -0.0009
     59  CE1      -73.2570   89.3470   52.3470 C.ar  191  TYR191      0.0417
     60  CE2      -73.8810   87.0260   52.0730 C.ar  191  TYR191      0.0417
     61  CZ       -72.9040   88.0230   52.0860 C.ar  191  TYR191      0.1957
     62  OH       -71.5850   87.7010   51.8270 O.3   191  TYR191     -0.2866
     63  N        -83.2100   88.5680   65.7170 N.3   210  MET210     -0.1230
     64  CA       -82.9630   89.6930   66.6130 C.3   210  MET210      0.1702
     65  C        -82.1490   90.7650   65.8910 C.2   210  MET210      0.2592
     66  O        -81.0120   90.5210   65.4860 O.2   210  MET210     -0.2718
     67  CB       -82.2290   89.2120   67.8730 C.3   210  MET210      0.0401
     68  CG       -82.0380   90.2940   68.9330 C.3   210  MET210      0.0596
     69  SD       -81.5360   89.6490   70.5390 S.3   210  MET210     -0.1393
     70  CE       -83.0690   89.0170   71.1550 C.3   210  MET210      0.0692
     71  N        -82.7270   91.9530   65.7450 N.am  211  VAL211     -0.1966
     72  CA       -82.0510   93.0460   65.0460 C.3   211  VAL211      0.1727
     73  C        -81.5390   94.1620   65.9470 C.2   211  VAL211      0.2616
     74  O        -82.2950   94.7560   66.7040 O.2   211  VAL211     -0.2715
     75  CB       -82.9790   93.6880   63.9970 C.3   211  VAL211      0.0290
     76  CG1      -82.1750   94.6030   63.0740 C.3   211  VAL211      0.0023
     77  CG2      -83.7120   92.6000   63.2170 C.3   211  VAL211      0.0023
     78  N        -80.2510   94.4600   65.8410 N.am  212  ARG212     -0.1963
     79  CA       -79.6640   95.5130   66.6460 C.3   212  ARG212      0.1729
     80  C        -80.1910   96.8820   66.2160 C.2   212  ARG212      0.2617
     81  O        -80.6100   97.6790   67.0560 O.2   212  ARG212     -0.2715
     82  CB       -78.1390   95.4780   66.5340 C.3   212  ARG212      0.0348
     83  CG       -77.4320   96.3570   67.5560 C.3   212  ARG212      0.0492
     84  CD       -75.9290   96.0900   67.6360 C.3   212  ARG212      0.2205
     85  NE       -75.2340   96.3040   66.3690 N.pl3 212  ARG212     -0.0865
     86  CZ       -73.9200   96.4770   66.2590 C.cat 212  ARG212      0.5346
     87  NH1      -73.1570   96.4610   67.3550 N.pl3 212  ARG212      0.1354
     88  NH2      -73.3660   96.6720   65.0580 N.pl3 212  ARG212      0.1354
     89  N        -80.1720   97.1480   64.9090 N.am  213  SER213     -0.1936
     90  CA       -80.6570   98.4280   64.3880 C.3   213  SER213      0.2055
     91  C        -81.5920   98.3030   63.1750 C.2   213  SER213      0.2642
     92  O        -82.8120   98.3200   63.3230 O.2   213  SER213     -0.2714
     93  CB       -79.4660   99.3470   64.0400 C.3   213  SER213      0.2130
     94  OG       -78.7430   98.8850   62.9090 O.3   213  SER213     -0.2179
     95  N        -81.0090   98.1920   61.9840 N.am  214  ILE214     -0.1977
     96  CA       -81.7780   98.0700   60.7550 C.3   214  ILE214      0.1596
     97  C        -81.4280   96.7850   60.0060 C.2   214  ILE214      0.2287
     98  O        -80.4890   96.0690   60.3870 O.2   214  ILE214     -0.2864
     99  CB       -81.4990   99.2460   59.8150 C.3   214  ILE214      0.0276
    100  CG1      -80.0100   99.3040   59.4810 C.3   214  ILE214      0.0022
    101  CG2      -81.9370  100.5180   60.4610 C.3   214  ILE214      0.0022
    102  CD1      -79.6780  100.1210   58.2550 C.3   214  ILE214      0.0001
    103  N        -77.8480   96.6200   56.3720 N.3   217  ARG217     -0.1245
    104  CA       -77.2140   97.9310   56.3320 C.3   217  ARG217      0.1563
    105  C        -76.2930   97.9700   55.1090 C.2   217  ARG217      0.2260
    106  O        -75.4870   97.0600   54.9000 O.2   217  ARG217     -0.2867
    107  CB       -76.3970   98.1610   57.6110 C.3   217  ARG217      0.0307
    108  CG       -75.4610   99.3700   57.5540 C.3   217  ARG217      0.0489
    109  CD       -74.7860   99.5950   58.8920 C.3   217  ARG217      0.2205
    110  NE       -75.7470   99.5730   59.9920 N.pl3 217  ARG217     -0.0865
    111  CZ       -76.5280  100.5920   60.3080 C.cat 217  ARG217      0.5346
    112  NH1      -76.4470  101.7100   59.6110 N.pl3 217  ARG217      0.1354
    113  NH2      -77.3960  100.4860   61.3050 N.pl3 217  ARG217      0.1354
    114  N        -82.5700   94.9490   69.8160 N.3   242  PHE242     -0.1227
    115  CA       -82.1670   94.1720   70.9760 C.3   242  PHE242      0.1736
    116  C        -80.9000   93.4010   70.6840 C.2   242  PHE242      0.2595
    117  O        -80.6760   92.9290   69.5650 O.2   242  PHE242     -0.2718
    118  CB       -83.2590   93.2000   71.4010 C.3   242  PHE242      0.0547
    119  CG       -84.3300   93.8280   72.2280 C.ar  242  PHE242     -0.0202
    120  CD1      -85.3830   94.4950   71.6280 C.ar  242  PHE242     -0.0042
    121  CD2      -84.2680   93.7790   73.6100 C.ar  242  PHE242     -0.0042
    122  CE1      -86.3660   95.1040   72.3920 C.ar  242  PHE242     -0.0003
    123  CE2      -85.2420   94.3830   74.3820 C.ar  242  PHE242     -0.0003
    124  CZ       -86.2960   95.0490   73.7720 C.ar  242  PHE242     -0.0000
    125  N        -80.0650   93.2760   71.7070 N.am  243  VAL243     -0.1966
    126  CA       -78.8120   92.5690   71.5660 C.3   243  VAL243      0.1712
    127  C        -78.6890   91.5650   72.6910 C.2   243  VAL243      0.2458
    128  O        -79.0120   91.8620   73.8370 O.2   243  VAL243     -0.2730
    129  CB       -77.6260   93.5470   71.6020 C.3   243  VAL243      0.0289
    130  CG1      -76.3230   92.7790   71.4500 C.3   243  VAL243      0.0023
    131  CG2      -77.7730   94.5840   70.4870 C.3   243  VAL243      0.0023
    132  N        -78.2450   90.3450   72.3690 N.am  244  PRO244     -0.2727
    133  CA       -78.0780   89.2810   73.3600 C.3   244  PRO244      0.1402
    134  C        -77.0400   89.6560   74.4040 C.2   244  PRO244      0.2269
    135  O        -75.8810   89.9100   74.0650 O.2   244  PRO244     -0.2865
    136  CB       -77.6320   88.0930   72.5130 C.3   244  PRO244      0.0296
    137  CG       -78.3200   88.3290   71.2300 C.3   244  PRO244      0.0237
    138  CD       -78.0740   89.8080   71.0110 C.3   244  PRO244      0.0939
    139  N        -75.1320   85.5460   63.4410 N.3   281  ALA281     -0.1231
    140  CA       -74.7270   86.0210   62.1310 C.3   281  ALA281      0.1694
    141  C        -74.5070   87.5190   62.2300 C.2   281  ALA281      0.2592
    142  O        -75.2600   88.3040   61.6640 O.2   281  ALA281     -0.2718
    143  CB       -75.8050   85.7100   61.1250 C.3   281  ALA281      0.0304
    144  N        -73.4640   87.9140   62.9500 N.am  282  ILE282     -0.1966
    145  CA       -73.1780   89.3300   63.1470 C.3   282  ILE282      0.1727
    146  C        -71.8750   89.8230   62.5250 C.2   282  ILE282      0.2617
    147  O        -71.1700   90.6480   63.1160 O.2   282  ILE282     -0.2715
    148  CB       -73.1340   89.6670   64.6360 C.3   282  ILE282      0.0290
    149  CG1      -71.9860   88.8910   65.2880 C.3   282  ILE282      0.0022
    150  CG2      -74.4740   89.3170   65.2980 C.3   282  ILE282      0.0023
    151  CD1      -71.6760   89.3210   66.7000 C.3   282  ILE282      0.0001
    152  N        -71.5490   89.3220   61.3390 N.am  283  GLY283     -0.1940
    153  CA       -70.3390   89.7800   60.6840 C.3   283  GLY283      0.2014
    154  C        -69.1430   88.8740   60.8400 C.2   283  GLY283      0.2638
    155  O        -69.1870   87.9060   61.5990 O.2   283  GLY283     -0.2714
    156  N        -68.0720   89.2070   60.1200 N.am  284  ARG284     -0.1977
    157  CA       -66.8400   88.4310   60.1310 C.3   284  ARG284      0.1597
    158  C        -65.5870   89.3050   60.2890 C.2   284  ARG284      0.2287
    159  O        -65.5700   90.4460   59.8410 O.2   284  ARG284     -0.2864
    160  CB       -66.7410   87.6310   58.8300 C.3   284  ARG284      0.0334
    161  CG       -68.0770   87.3380   58.1760 C.3   284  ARG284      0.0492
    162  CD       -67.9150   86.4550   56.9620 C.3   284  ARG284      0.2205
    163  NE       -67.7400   85.0520   57.3150 N.pl3 284  ARG284     -0.0865
    164  CZ       -66.8270   84.2610   56.7640 C.cat 284  ARG284      0.5346
    165  NH1      -66.0080   84.7370   55.8390 N.pl3 284  ARG284      0.1354
    166  NH2      -66.7280   82.9950   57.1390 N.pl3 284  ARG284      0.1354
    167  N        -59.9180   97.7880   61.5940 N.3   304  THR304     -0.1218
    168  CA       -60.7940   96.8460   60.8800 C.3   304  THR304      0.1862
    169  C        -60.1880   95.4690   60.5820 C.2   304  THR304      0.2287
    170  O        -60.9050   94.4720   60.4740 O.2   304  THR304     -0.2866
    171  CB       -61.2840   97.4430   59.5440 C.3   304  THR304      0.1770
    172  OG1      -60.1720   97.9530   58.7990 O.3   304  THR304     -0.2211
    173  CG2      -62.2750   98.5560   59.8010 C.3   304  THR304      0.0375
    174  N        -58.7130   94.7670   57.8860 N.3   306  LYS306     -0.1245
    175  CA       -58.5500   94.7310   56.4380 C.3   306  LYS306      0.1561
    176  C        -57.1600   95.1870   56.0430 C.2   306  LYS306      0.2260
    177  O        -56.4760   95.8300   56.8280 O.2   306  LYS306     -0.2867
    178  CB       -59.5940   95.6210   55.7760 C.3   306  LYS306      0.0271
    179  CG       -60.9320   95.5990   56.5000 C.3   306  LYS306      0.0035
    180  CD       -61.6850   94.2900   56.3360 C.3   306  LYS306      0.0206
    181  CE       -62.3470   94.2190   54.9770 C.3   306  LYS306      0.1093
    182  NZ       -63.4060   93.1970   54.9500 N.3   306  LYS306     -0.1314
    183  N        -61.9190   98.3450   51.7550 N.3   329  ASP329     -0.1225
    184  CA       -62.7360   99.1370   50.8310 C.3   329  ASP329      0.1805
    185  C        -62.8400   98.5020   49.4480 C.2   329  ASP329      0.2597
    186  O        -62.3270   99.0290   48.4530 O.2   329  ASP329     -0.2718
    187  CB       -62.1870  100.5670   50.7060 C.3   329  ASP329      0.1424
    188  CG       -62.7110  101.4850   51.7920 C.2   329  ASP329      0.3668
    189  OD1      -63.9480  101.6670   51.8420 O.co2 329  ASP329     -0.2456
    190  OD2      -61.9020  102.0180   52.5880 O.co2 329  ASP329     -0.2456
    191  N        -63.5050   97.3550   49.4110 N.am  330  LYS330     -0.1979
    192  CA       -63.7300   96.6080   48.1870 C.3   330  LYS330      0.1596
    193  C        -65.0350   95.8670   48.4110 C.2   330  LYS330      0.2287
    194  O        -65.8320   96.2660   49.2600 O.2   330  LYS330     -0.2864
    195  CB       -62.5850   95.6270   47.9470 C.3   330  LYS330      0.0298
    196  CG       -61.2290   96.3170   47.8030 C.3   330  LYS330      0.0038
    197  CD       -61.1150   97.1190   46.5130 C.3   330  LYS330      0.0206
    198  CE       -60.0030   98.1380   46.6100 C.3   330  LYS330      0.1093
    199  NZ       -59.3540   98.3460   45.2940 N.3   330  LYS330     -0.1314
    200  N        -66.6650   92.1850   49.3680 N.3   332  GLU332     -0.1245
    201  CA       -66.4820   90.8230   49.8630 C.3   332  GLU332      0.1567
    202  C        -67.3540   89.7840   49.1590 C.2   332  GLU332      0.2260
    203  O        -68.3460   89.3260   49.7280 O.2   332  GLU332     -0.2867
    204  CB       -66.7650   90.7520   51.3770 C.3   332  GLU332      0.0388
    205  CG       -65.8040   91.5400   52.2650 C.3   332  GLU332      0.1160
    206  CD       -66.1720   93.0250   52.3920 C.2   332  GLU332      0.3649
    207  OE1      -67.3250   93.3030   52.7990 O.co2 332  GLU332     -0.2457
    208  OE2      -65.3170   93.9040   52.1010 O.co2 332  GLU332     -0.2457
@<TRIPOS>BOND
     1   199   198    1
     2   197   198    1
     3   197   196    1
     4   196   195    1
     5   195   192    1
     6   192   193    1
     7   192   191    1
     8   193   194    2
     9   186   185    2
    10   202   203    2
    11   202   201    1
    12   200   201    1
    13   191   185   am
    14   185   184    1
    15   201   204    1
    16   187   184    1
    17   187   188    1
    18   184   183    1
    19   204   205    1
    20   188   189   ar
    21   188   190   ar
    22    62    61    1
    23    60    61   ar
    24    60    58   ar
    25    61    59   ar
    26   208   206   ar
    27   205   206    1
    28    58    56   ar
    29    59    57   ar
    30   206   207   ar
    31    56    57   ar
    32    56    55    1
    33    55    52    1
    34    52    53    1
    35    52    51    1
    36    54    53    2
    37   106   105    2
    38   182   181    1
    39   181   180    1
    40   105   104    1
    41    51    47   am
    42     8     7   ar
    43   178   175    1
    44   178   179    1
    45   165   164    1
    46     1     2    1
    47   176   175    1
    48   176   177    2
    49     7     6    1
    50     7     9   ar
    51     6     5    1
    52   104   103    1
    53   104   107    1
    54   180   179    1
    55    47    48    2
    56    47    46    1
    57   175   174    1
    58   164   166    1
    59   164   163    2
    60   162   163    1
    61   162   161    1
    62     5     2    1
    63     2     3    1
    64    46    49    1
    65    46    45    1
    66     4     3    2
    67   108   107    1
    68   108   109    1
    69    49    50    1
    70    43    42    2
    71   161   160    1
    72   102   100    1
    73    45    42   am
    74    42    41    1
    75   172   171    1
    76   160   157    1
    77   109   110    1
    78   100    99    1
    79   171   173    1
    80   171   168    1
    81   112   111    1
    82    99   101    1
    83    99    96    1
    84   159   158    2
    85   110   111    2
    86    97    98    2
    87    97    96    1
    88    41    44    1
    89    41    40    1
    90   156   157    1
    91   156   154   am
    92   157   158    1
    93   111   113    1
    94   170   169    2
    95   169   168    1
    96   153   154    1
    97   153   152    1
    98    96    95    1
    99   154   155    2
   100   168   167    1
   101   143   140    1
   102    40    38   am
   103   152   146   am
   104   142   141    2
   105    95    91   am
   106    20    18    1
   107    39    38    2
   108    38    37    1
   109   140   141    1
   110   140   139    1
   111   141   144   am
   112    19    18    1
   113   146   147    2
   114   146   145    1
   115    18    17    2
   116    94    93    1
   117   144   145    1
   118    76    75    1
   119   145   148    1
   120    91    92    2
   121    91    90    1
   122    37    36    1
   123    77    75    1
   124    10    11    1
   125    75    72    1
   126    93    90    1
   127    17    16    1
   128    36    31   am
   129    32    31    2
   130    90    89    1
   131    14    11    1
   132    14    15    1
   133   148   149    1
   134   148   150    1
   135    31    30    1
   136    11    12    1
   137    89    80   am
   138    72    71    1
   139    72    73    1
   140    88    86    1
   141    16    15    1
   142   149   151    1
   143    29    30    1
   144    66    65    2
   145    13    12    2
   146    63    64    1
   147    71    65   am
   148    78    73   am
   149    78    79    1
   150    30    33    1
   151    65    64    1
   152    73    74    2
   153    80    79    1
   154    80    81    2
   155    86    85    2
   156    86    87    1
   157    85    84    1
   158    82    79    1
   159    82    83    1
   160    64    67    1
   161    33    34    1
   162    33    35    1
   163    83    84    1
   164    67    68    1
   165    68    69    1
   166   117   116    2
   167    28    26    1
   168   114   115    1
   169    21    22    1
   170    26    27    1
   171    26    25    1
   172   131   129    1
   173    69    70    1
   174    22    25    1
   175    22    23    1
   176   116   115    1
   177   116   125   am
   178   115   118    1
   179   138   137    1
   180   138   132    1
   181   137   136    1
   182   118   119    1
   183   130   129    1
   184   126   129    1
   185   126   125    1
   186   126   127    1
   187   120   119   ar
   188   120   122   ar
   189    23    24    2
   190   119   121   ar
   191   132   127   am
   192   132   133    1
   193   122   124   ar
   194   136   133    1
   195   127   128    2
   196   133   134    1
   197   121   123   ar
   198   124   123   ar
   199   135   134    2
