@<TRIPOS>MOLECULE
tmp/2j3nA02.pdb
 87 85 0 0 0
SMALL
GASTEIGER

@<TRIPOS>ATOM
      1  N        -90.3240  102.7280   39.0410 N.3   394  HIS394     -0.1226
      2  CA       -90.5340  101.4560   39.7120 C.3   394  HIS394      0.1752
      3  C        -91.8290  100.7640   39.3250 C.2   394  HIS394      0.2597
      4  O        -92.5760  101.2700   38.4910 O.2   394  HIS394     -0.2718
      5  CB       -90.4720  101.6280   41.2270 C.3   394  HIS394      0.0759
      6  CG       -91.5610  102.4740   41.7860 C.ar  394  HIS394      0.0818
      7  ND1      -92.0880  102.2660   43.0400 N.ar  394  HIS394     -0.2268
      8  CD2      -92.1820  103.5700   41.2930 C.ar  394  HIS394      0.1154
      9  CE1      -92.9850  103.1980   43.3000 C.ar  394  HIS394      0.1986
     10  NE2      -93.0590  104.0040   42.2570 N.ar  394  HIS394     -0.2212
     11  N        -92.0820   99.6050   39.9360 N.am  395  SER395     -0.1938
     12  CA       -93.2730   98.8370   39.6260 C.3   395  SER395      0.2055
     13  C        -93.2490   97.4590   40.1990 C.2   395  SER395      0.2643
     14  O        -92.1940   96.8580   40.2890 O.2   395  SER395     -0.2714
     15  CB       -93.4240   98.6540   38.1160 C.3   395  SER395      0.2130
     16  OG       -93.8350   97.3190   37.8230 O.3   395  SER395     -0.2179
     17  N        -94.4340   96.9540   40.5320 N.am  396  TYR396     -0.1959
     18  CA       -94.5990   95.5950   41.0390 C.3   396  TYR396      0.1771
     19  C        -94.8570   94.6700   39.8490 C.2   396  TYR396      0.2619
     20  O        -95.2860   95.1170   38.7850 O.2   396  TYR396     -0.2715
     21  CB       -95.8180   95.4910   41.9390 C.3   396  TYR396      0.0574
     22  CG       -95.6670   96.1000   43.2890 C.ar  396  TYR396     -0.0198
     23  CD1      -96.5560   97.0740   43.7260 C.ar  396  TYR396     -0.0009
     24  CD2      -94.6590   95.6870   44.1550 C.ar  396  TYR396     -0.0009
     25  CE1      -96.4480   97.6270   44.9920 C.ar  396  TYR396      0.0417
     26  CE2      -94.5410   96.2350   45.4230 C.ar  396  TYR396      0.0417
     27  CZ       -95.4350   97.2050   45.8380 C.ar  396  TYR396      0.1957
     28  OH       -95.3080   97.7700   47.0880 O.3   396  TYR396     -0.2866
     29  N        -94.6020   93.3860   40.0280 N.am  397  PHE397     -0.1974
     30  CA       -94.8830   92.4290   38.9860 C.3   397  PHE397      0.1639
     31  C        -95.2650   91.1430   39.6480 C.2   397  PHE397      0.2290
     32  O        -94.9370   90.9370   40.8000 O.2   397  PHE397     -0.2864
     33  CB       -93.6980   92.2260   38.0770 C.3   397  PHE397      0.0560
     34  CG       -92.4460   91.8390   38.7740 C.ar  397  PHE397     -0.0200
     35  CD1      -91.6590   92.8050   39.4210 C.ar  397  PHE397     -0.0042
     36  CD2      -91.9740   90.5200   38.6870 C.ar  397  PHE397     -0.0042
     37  CE1      -90.4170   92.4590   39.9570 C.ar  397  PHE397     -0.0003
     38  CE2      -90.7300   90.1700   39.2210 C.ar  397  PHE397     -0.0003
     39  CZ       -89.9550   91.1350   39.8500 C.ar  397  PHE397     -0.0000
     40  N        -90.3560   93.1730   32.9060 N.3   469  VAL469     -0.1245
     41  CA       -90.8630   94.3510   33.5920 C.3   469  VAL469      0.1561
     42  C        -89.9310   95.5830   33.4820 C.2   469  VAL469      0.2260
     43  O        -90.3780   96.7380   33.4900 O.2   469  VAL469     -0.2867
     44  CB       -91.0830   94.0300   35.0800 C.3   469  VAL469      0.0252
     45  CG1      -89.7860   93.5220   35.6780 C.3   469  VAL469      0.0019
     46  CG2      -91.5650   95.2660   35.8210 C.3   469  VAL469      0.0019
     47  N        -90.0440   98.3660   30.3630 N.3   472  THR472     -0.1203
     48  CA       -91.1380   99.3230   30.2170 C.3   472  THR472      0.1994
     49  C        -91.4250  100.1230   31.5000 C.2   472  THR472      0.2618
     50  O        -92.5700  100.3820   31.8530 O.2   472  THR472     -0.2717
     51  CB       -92.4370   98.6070   29.7860 C.3   472  THR472      0.1784
     52  OG1      -92.7490   97.5770   30.7340 O.3   472  THR472     -0.2211
     53  CG2      -92.2810   97.9970   28.4200 C.3   472  THR472      0.0376
     54  N        -90.3920  100.5340   32.2080 N.am  473  LEU473     -0.1965
     55  CA       -90.6450  101.2670   33.4310 C.3   473  LEU473      0.1728
     56  C        -91.0130  102.7110   33.1240 C.2   473  LEU473      0.2617
     57  O        -90.2010  103.4890   32.5930 O.2   473  LEU473     -0.2715
     58  CB       -89.4220  101.1900   34.3260 C.3   473  LEU473      0.0311
     59  CG       -89.0820   99.7740   34.7850 C.3   473  LEU473      0.0022
     60  CD1      -87.8220   99.8290   35.6450 C.3   473  LEU473      0.0001
     61  CD2      -90.2490   99.1960   35.5840 C.3   473  LEU473      0.0001
     62  N        -92.2470  103.0630   33.4820 N.am  474  SER474     -0.1936
     63  CA       -92.7670  104.3970   33.2240 C.3   474  SER474      0.2055
     64  C        -93.2640  105.1920   34.4390 C.2   474  SER474      0.2642
     65  O        -93.2640  106.4260   34.3960 O.2   474  SER474     -0.2714
     66  CB       -93.8860  104.3090   32.1920 C.3   474  SER474      0.2130
     67  OG       -95.0630  103.8400   32.8140 O.3   474  SER474     -0.2179
     68  N        -93.6960  104.5270   35.5060 N.am  475  VAL475     -0.1977
     69  CA       -94.1550  105.2760   36.6760 C.3   475  VAL475      0.1596
     70  C        -93.0100  105.5790   37.6390 C.2   475  VAL475      0.2287
     71  O        -92.3550  104.6690   38.1590 O.2   475  VAL475     -0.2864
     72  CB       -95.2250  104.5260   37.4650 C.3   475  VAL475      0.0276
     73  CG1      -95.5830  105.3200   38.7230 C.3   475  VAL475      0.0022
     74  CG2      -96.4450  104.2930   36.5980 C.3   475  VAL475      0.0022
     75  N        -98.5550  102.4510   42.1870 N.3   483  ILE483     -0.1245
     76  CA       -98.2360  101.3380   41.2960 C.3   483  ILE483      0.1561
     77  C        -98.7810  100.0720   41.9680 C.2   483  ILE483      0.2260
     78  O        -98.8650   98.9980   41.3700 O.2   483  ILE483     -0.2867
     79  CB       -96.7080  101.2100   41.0720 C.3   483  ILE483      0.0252
     80  CG1      -95.9770  101.1210   42.4030 C.3   483  ILE483      0.0019
     81  CG2      -96.1950  102.3970   40.2860 C.3   483  ILE483      0.0019
     82  CD1      -94.5130  100.8500   42.2360 C.3   483  ILE483      0.0001
     83  N       -101.7300   96.3740   41.0420 N.3   486  ALA486     -0.1245
     84  CA      -101.3890   95.3700   40.0480 C.3   486  ALA486      0.1562
     85  C       -102.0690   94.0470   40.4140 C.2   486  ALA486      0.2260
     86  O       -101.4290   92.9760   40.2790 O.2   486  ALA486     -0.2867
     87  CB       -99.8640   95.2030   39.9720 C.3   486  ALA486      0.0290
@<TRIPOS>BOND
     1    53    51    1
     2    51    48    1
     3    51    52    1
     4    48    47    1
     5    48    49    1
     6    49    50    2
     7    49    54   am
     8    66    67    1
     9    66    63    1
    10    54    55    1
    11    57    56    2
    12    40    41    1
    13    56    55    1
    14    56    62   am
    15    63    62    1
    16    63    64    1
    17    55    58    1
    18    42    43    2
    19    42    41    1
    20    41    44    1
    21    58    59    1
    22    65    64    2
    23    64    68   am
    24    59    61    1
    25    59    60    1
    26    44    45    1
    27    44    46    1
    28    68    69    1
    29    74    72    1
    30    69    72    1
    31    69    70    1
    32    72    73    1
    33    70    71    2
    34    16    15    1
    35    33    34    1
    36    33    30    1
    37    15    12    1
    38     4     3    2
    39    36    34   ar
    40    36    38   ar
    41    34    35   ar
    42    20    19    2
    43    30    31    1
    44    30    29    1
    45     1     2    1
    46    38    39   ar
    47     3     2    1
    48     3    11   am
    49    35    37   ar
    50    12    11    1
    51    12    13    1
    52    31    32    2
    53     2     5    1
    54    19    29   am
    55    19    18    1
    56    39    37   ar
    57    87    84    1
    58    84    85    1
    59    84    83    1
    60    13    14    2
    61    13    17   am
    62    86    85    2
    63    81    79    1
    64    17    18    1
    65    18    21    1
    66    79    76    1
    67    79    80    1
    68     5     6    1
    69     8     6   ar
    70     8    10   ar
    71    76    77    1
    72    76    75    1
    73    78    77    2
    74     6     7   ar
    75    21    22    1
    76    82    80    1
    77    10     9   ar
    78     7     9   ar
    79    22    23   ar
    80    22    24   ar
    81    23    25   ar
    82    24    26   ar
    83    25    27   ar
    84    26    27   ar
    85    27    28    1
