@<TRIPOS>MOLECULE
tmp/2j3oA00.pdb
 79 72 0 0 0
SMALL
GASTEIGER

@<TRIPOS>ATOM
      1  N         23.3020   -4.4570   84.6400 N.3    20  SER20      -0.1217
      2  CA        22.1650   -3.5460   84.6190 C.3    20  SER20       0.1889
      3  C         21.2730   -3.8420   83.4130 C.2    20  SER20       0.2288
      4  O         21.7650   -4.0290   82.2900 O.2    20  SER20      -0.2866
      5  CB        22.6550   -2.0890   84.5360 C.3    20  SER20       0.2089
      6  OG        23.2740   -1.6740   85.7480 O.3    20  SER20      -0.2183
      7  N         14.0120   -1.0440   85.3100 N.3    36  LEU36      -0.1231
      8  CA        15.4440   -0.9510   85.0270 C.3    36  LEU36       0.1693
      9  C         16.2460   -1.0680   86.3190 C.2    36  LEU36       0.2592
     10  O         16.1010   -0.2400   87.2000 O.2    36  LEU36      -0.2718
     11  CB        15.7540    0.3930   84.3770 C.3    36  LEU36       0.0284
     12  CG        17.2280    0.7530   84.1520 C.3    36  LEU36       0.0019
     13  CD1       17.8450   -0.2670   83.2390 C.3    36  LEU36       0.0001
     14  CD2       17.4110    2.1410   83.5490 C.3    36  LEU36       0.0001
     15  N         17.0800   -2.0950   86.4350 N.am   37  CYS37      -0.1956
     16  CA        17.9800   -2.2260   87.5680 C.3    37  CYS37       0.1843
     17  C         19.3640   -1.6780   87.2500 C.2    37  CYS37       0.2625
     18  O         19.9680   -2.0730   86.2580 O.2    37  CYS37      -0.2714
     19  CB        18.1410   -3.6830   87.9710 C.3    37  CYS37       0.0997
     20  SG        16.5980   -4.5070   88.3370 S.3    37  CYS37      -0.0797
     21  N         19.8610   -0.7760   88.0960 N.am   38  ASP38      -0.1971
     22  CA        21.2650   -0.3620   88.0610 C.3    38  ASP38       0.1709
     23  C         21.9720   -1.3170   88.9930 C.2    38  ASP38       0.2293
     24  O         21.7460   -1.2670   90.2150 O.2    38  ASP38      -0.2864
     25  CB        21.4120    1.0810   88.5770 C.3    38  ASP38       0.1436
     26  CG        22.8390    1.5870   88.5140 C.2    38  ASP38       0.3671
     27  OD1       23.7710    0.7550   88.4980 O.co2  38  ASP38      -0.2456
     28  OD2       23.0210    2.8270   88.4870 O.co2  38  ASP38      -0.2456
     29  N         25.1680   -1.5940   89.1440 N.3    40  ASP40      -0.1225
     30  CA        26.5380   -1.1340   89.0770 C.3    40  ASP40       0.1805
     31  C         26.9080   -0.1320   90.1890 C.2    40  ASP40       0.2598
     32  O         27.6990   -0.4480   91.0790 O.2    40  ASP40      -0.2718
     33  CB        26.7950   -0.5270   87.7030 C.3    40  ASP40       0.1424
     34  CG        28.2480   -0.2610   87.4800 C.2    40  ASP40       0.3668
     35  OD1       28.8870    0.1940   88.4610 O.co2  40  ASP40      -0.2456
     36  OD2       28.7580   -0.5040   86.3550 O.co2  40  ASP40      -0.2456
     37  N         26.3220    1.0630   90.1180 N.am   41  THR41      -0.1953
     38  CA        26.5220    2.1280   91.0720 C.3    41  THR41       0.1897
     39  C         26.3350    1.7360   92.5320 C.2    41  THR41       0.2313
     40  O         25.3340    1.1100   92.8950 O.2    41  THR41      -0.2863
     41  CB        25.5060    3.2210   90.8050 C.3    41  THR41       0.1794
     42  OG1       25.6510    3.6950   89.4510 O.3    41  THR41      -0.2208
     43  CG2       25.7100    4.3830   91.7980 C.3    41  THR41       0.0378
     44  N         15.6110    1.9240   88.9650 N.3    48  VAL48      -0.1245
     45  CA        15.6690    3.2670   88.4040 C.3    48  VAL48       0.1561
     46  C         14.2890    3.7020   87.9520 C.2    48  VAL48       0.2260
     47  O         13.6580    2.9880   87.1860 O.2    48  VAL48      -0.2867
     48  CB        16.5830    3.3200   87.1670 C.3    48  VAL48       0.0252
     49  CG1       16.5200    4.6990   86.5080 C.3    48  VAL48       0.0019
     50  CG2       18.0110    2.9380   87.5440 C.3    48  VAL48       0.0019
     51  N         15.0300    8.7040   84.0930 N.3    51  ARG51      -0.1245
     52  CA        16.2890    8.6520   83.4080 C.3    51  ARG51       0.1563
     53  C         16.2950    9.6450   82.2520 C.2    51  ARG51       0.2260
     54  O         15.4160    9.6120   81.3870 O.2    51  ARG51      -0.2867
     55  CB        16.5830    7.2200   82.9400 C.3    51  ARG51       0.0307
     56  CG        17.9350    7.0300   82.2990 C.3    51  ARG51       0.0489
     57  CD        18.3820    5.5630   82.2680 C.3    51  ARG51       0.2205
     58  NE        18.6940    5.2180   80.8800 N.pl3  51  ARG51      -0.0865
     59  CZ        19.9160    5.0320   80.3950 C.cat  51  ARG51       0.5346
     60  NH1       20.9700    5.1010   81.2060 N.pl3  51  ARG51       0.1354
     61  NH2       20.0820    4.7430   79.1000 N.pl3  51  ARG51       0.1354
     62  N         19.4340   10.5440   86.7010 N.3   211  GLU211     -0.1245
     63  CA        18.8060    9.2930   87.0240 C.3   211  GLU211      0.1567
     64  C         18.4040    9.3530   88.4570 C.2   211  GLU211      0.2260
     65  O         19.2160    9.7240   89.2960 O.2   211  GLU211     -0.2867
     66  CB        19.7790    8.1360   86.8670 C.3   211  GLU211      0.0388
     67  CG        19.7200    7.4350   85.5240 C.3   211  GLU211      0.1160
     68  CD        20.8170    6.3940   85.3490 C.2   211  GLU211      0.3649
     69  OE1       21.1250    5.6210   86.3120 O.co2 211  GLU211     -0.2457
     70  OE2       21.3580    6.3570   84.2240 O.co2 211  GLU211     -0.2457
     71  N         16.7020    6.8880   91.5700 N.3   213  LYS213     -0.1245
     72  CA        16.5510    5.4360   91.8100 C.3   213  LYS213      0.1561
     73  C         16.4270    5.1050   93.2810 C.2   213  LYS213      0.2260
     74  O         16.8400    5.8990   94.1130 O.2   213  LYS213     -0.2867
     75  CB        17.7250    4.6580   91.2100 C.3   213  LYS213      0.0271
     76  CG        19.0830    5.0580   91.7780 C.3   213  LYS213      0.0035
     77  CD        20.2590    4.6090   90.8910 C.3   213  LYS213      0.0206
     78  CE        20.4200    5.5110   89.6930 C.3   213  LYS213      0.1093
     79  NZ        21.7080    5.2300   88.9880 N.3   213  LYS213     -0.1314
@<TRIPOS>BOND
     1    61    59    1
     2    59    58    2
     3    59    60    1
     4    58    57    1
     5    54    53    2
     6    53    52    1
     7    57    56    1
     8     4     3    2
     9    56    55    1
    10    55    52    1
    11    13    12    1
    12    52    51    1
    13     3     2    1
    14    14    12    1
    15    12    11    1
    16    70    68   ar
    17    11     8    1
    18     5     2    1
    19     5     6    1
    20     2     1    1
    21     8     7    1
    22     8     9    1
    23    68    67    1
    24    68    69   ar
    25    67    66    1
    26    18    17    2
    27     9    15   am
    28     9    10    2
    29    36    34   ar
    30    15    16    1
    31    49    48    1
    32    62    63    1
    33    66    63    1
    34    63    64    1
    35    48    50    1
    36    48    45    1
    37    47    46    2
    38    17    16    1
    39    17    21   am
    40    34    33    1
    41    34    35   ar
    42    16    19    1
    43    33    30    1
    44    46    45    1
    45    19    20    1
    46    22    21    1
    47    22    25    1
    48    22    23    1
    49    45    44    1
    50    64    65    2
    51    28    26   ar
    52    27    26   ar
    53    26    25    1
    54    79    78    1
    55    23    24    2
    56    30    29    1
    57    30    31    1
    58    42    41    1
    59    78    77    1
    60    37    31   am
    61    37    38    1
    62    31    32    2
    63    41    38    1
    64    41    43    1
    65    77    76    1
    66    38    39    1
    67    75    76    1
    68    75    72    1
    69    71    72    1
    70    72    73    1
    71    39    40    2
    72    73    74    2
