@<TRIPOS>MOLECULE
tmp/2j3qA00.pdb
 178 178 0 0 0
SMALL
GASTEIGER

@<TRIPOS>ATOM
      1  N        -16.7380  105.4790   46.9400 N.3    67  TYR67      -0.1241
      2  CA       -17.0880  106.8620   47.1780 C.3    67  TYR67       0.1605
      3  C        -18.5850  106.8200   47.5050 C.2    67  TYR67       0.2264
      4  O        -19.3300  106.0510   46.9110 O.2    67  TYR67      -0.2867
      5  CB       -16.8620  107.6650   45.8930 C.3    67  TYR67       0.0534
      6  CG       -17.4150  109.0600   45.9480 C.ar   67  TYR67      -0.0201
      7  CD1      -16.5950  110.1450   46.2580 C.ar   67  TYR67      -0.0009
      8  CD2      -18.7730  109.2880   45.7710 C.ar   67  TYR67      -0.0009
      9  CE1      -17.1160  111.4170   46.3960 C.ar   67  TYR67       0.0417
     10  CE2      -19.3040  110.5500   45.9110 C.ar   67  TYR67       0.0417
     11  CZ       -18.4700  111.6110   46.2220 C.ar   67  TYR67       0.1957
     12  OH       -19.0020  112.8690   46.3500 O.3    67  TYR67      -0.2866
     13  N        -22.0920  109.0710   47.7590 N.3    69  ASP69      -0.1239
     14  CA       -22.6830  110.3290   47.3140 C.3    69  ASP69       0.1674
     15  C        -23.4190  111.0820   48.4150 C.2    69  ASP69       0.2266
     16  O        -24.4720  110.6570   48.8790 O.2    69  ASP69      -0.2867
     17  CB       -23.6170  110.0550   46.1310 C.3    69  ASP69       0.1410
     18  CG       -24.4580  111.2520   45.7580 C.2    69  ASP69       0.3668
     19  OD1      -23.9910  112.3840   45.9660 O.co2  69  ASP69      -0.2456
     20  OD2      -25.5810  111.0670   45.2470 O.co2  69  ASP69      -0.2456
     21  N        -24.1260  114.5190   48.1240 N.3    71  GLN71      -0.1245
     22  CA       -24.4460  115.7920   47.5140 C.3    71  GLN71       0.1566
     23  C        -25.8100  116.2910   47.9570 C.2    71  GLN71       0.2260
     24  O        -26.0100  117.4870   48.1470 O.2    71  GLN71      -0.2867
     25  CB       -24.4120  115.6540   45.9990 C.3    71  GLN71       0.0367
     26  CG       -23.7510  116.8210   45.3010 C.3    71  GLN71       0.0905
     27  CD       -24.4740  118.1200   45.5600 C.2    71  GLN71       0.2608
     28  OE1      -25.6740  118.2250   45.3160 O.2    71  GLN71      -0.2717
     29  NE2      -23.7500  119.1210   46.0580 N.am   71  GLN71      -0.0878
     30  N        -30.9800  110.4270   45.3660 N.3    78  SER78      -0.1217
     31  CA       -29.5680  110.1440   45.1750 C.3    78  SER78       0.1889
     32  C        -29.0660  109.0470   46.1090 C.2    78  SER78       0.2288
     33  O        -28.1900  108.2580   45.7420 O.2    78  SER78      -0.2866
     34  CB       -28.7500  111.4130   45.4110 C.3    78  SER78       0.2089
     35  OG       -28.7610  111.7770   46.7820 O.3    78  SER78      -0.2183
     36  N        -28.8030  104.8920   45.5920 N.3    81  TRP81      -0.1241
     37  CA       -27.6960  104.2060   44.9290 C.3    81  TRP81       0.1605
     38  C        -26.5380  103.9710   45.8980 C.2    81  TRP81       0.2264
     39  O        -25.6750  103.1390   45.6480 O.2    81  TRP81      -0.2867
     40  CB       -27.1870  105.0110   43.7260 C.3    81  TRP81       0.0550
     41  CG       -28.2410  105.3650   42.7150 C.ar   81  TRP81       0.0003
     42  CD1      -28.8500  106.5810   42.5490 C.ar   81  TRP81       0.0946
     43  CD2      -28.8550  104.4790   41.7730 C.ar   81  TRP81       0.0152
     44  NE1      -29.8110  106.5050   41.5660 N.ar   81  TRP81      -0.2442
     45  CE2      -29.8380  105.2250   41.0740 C.ar   81  TRP81       0.0810
     46  CE3      -28.6750  103.1260   41.4510 C.ar   81  TRP81       0.0012
     47  CZ2      -30.6390  104.6580   40.0780 C.ar   81  TRP81       0.0191
     48  CZ3      -29.4680  102.5640   40.4610 C.ar   81  TRP81       0.0001
     49  CH2      -30.4400  103.3310   39.7860 C.ar   81  TRP81       0.0015
     50  N        -16.8950  103.0300   39.5610 N.3   118  TYR118     -0.1241
     51  CA       -16.3470  103.6130   40.7860 C.3   118  TYR118      0.1605
     52  C        -17.2580  103.3710   41.9890 C.2   118  TYR118      0.2264
     53  O        -16.8460  103.5350   43.1340 O.2   118  TYR118     -0.2867
     54  CB       -16.1240  105.1210   40.5980 C.3   118  TYR118      0.0534
     55  CG       -17.3870  105.9550   40.6580 C.ar  118  TYR118     -0.0201
     56  CD1      -17.9810  106.2680   41.8850 C.ar  118  TYR118     -0.0009
     57  CD2      -17.9980  106.4180   39.4940 C.ar  118  TYR118     -0.0009
     58  CE1      -19.1430  107.0170   41.9530 C.ar  118  TYR118      0.0417
     59  CE2      -19.1630  107.1660   39.5520 C.ar  118  TYR118      0.0417
     60  CZ       -19.7340  107.4650   40.7890 C.ar  118  TYR118      0.1957
     61  OH       -20.8920  108.2150   40.8650 O.3   118  TYR118     -0.2866
     62  N        -10.7860  111.0960   42.8410 N.3   276  TRP276     -0.1241
     63  CA       -11.0650  112.0300   41.7640 C.3   276  TRP276      0.1605
     64  C         -9.9220  112.9230   41.2890 C.2   276  TRP276      0.2264
     65  O         -9.9770  113.4440   40.1790 O.2   276  TRP276     -0.2867
     66  CB       -12.2740  112.8920   42.1350 C.3   276  TRP276      0.0550
     67  CG       -13.4810  112.0860   42.5070 C.ar  276  TRP276      0.0003
     68  CD1      -13.8550  111.6930   43.7610 C.ar  276  TRP276      0.0946
     69  CD2      -14.4390  111.5180   41.6090 C.ar  276  TRP276      0.0152
     70  NE1      -14.9860  110.9180   43.6980 N.ar  276  TRP276     -0.2442
     71  CE2      -15.3650  110.7950   42.3880 C.ar  276  TRP276      0.0810
     72  CE3      -14.6040  111.5500   40.2210 C.ar  276  TRP276      0.0012
     73  CZ2      -16.4340  110.1040   41.8250 C.ar  276  TRP276      0.0191
     74  CZ3      -15.6720  110.8620   39.6610 C.ar  276  TRP276      0.0001
     75  CH2      -16.5730  110.1500   40.4650 C.ar  276  TRP276      0.0015
     76  N         -8.1190  112.3310   37.5190 N.3   279  LEU279     -0.1245
     77  CA        -8.7430  112.5890   36.2230 C.3   279  LEU279      0.1561
     78  C         -8.0090  113.7380   35.5330 C.2   279  LEU279      0.2260
     79  O         -7.8850  114.8330   36.0800 O.2   279  LEU279     -0.2867
     80  CB       -10.2000  112.9980   36.3910 C.3   279  LEU279      0.0270
     81  CG       -11.2010  111.9990   36.9400 C.3   279  LEU279      0.0019
     82  CD1      -12.5330  112.7030   37.0670 C.3   279  LEU279      0.0001
     83  CD2      -11.3030  110.7980   36.0330 C.3   279  LEU279      0.0001
     84  N        -14.2370  117.7750   34.4580 N.3   283  SER283     -0.1202
     85  CA       -15.3010  117.2840   33.5900 C.3   283  SER283      0.2020
     86  C        -16.3910  116.4590   34.2480 C.2   283  SER283      0.2619
     87  O        -16.3590  116.1880   35.4460 O.2   283  SER283     -0.2717
     88  CB       -14.6760  116.4330   32.4910 C.3   283  SER283      0.2103
     89  OG       -14.0000  115.3290   33.0770 O.3   283  SER283     -0.2182
     90  N        -17.3510  116.0450   33.4270 N.am  284  ILE284     -0.1965
     91  CA       -18.4500  115.2270   33.9010 C.3   284  ILE284      0.1727
     92  C        -18.4980  113.9350   33.0990 C.2   284  ILE284      0.2616
     93  O        -17.9510  113.8610   31.9950 O.2   284  ILE284     -0.2715
     94  CB       -19.7830  115.9630   33.7820 C.3   284  ILE284      0.0290
     95  CG1      -20.0420  116.3530   32.3320 C.3   284  ILE284      0.0022
     96  CG2      -19.7730  117.1840   34.6840 C.3   284  ILE284      0.0023
     97  CD1      -21.4300  116.9380   32.1250 C.3   284  ILE284      0.0001
     98  N        -19.1370  112.9190   33.6780 N.am  285  PHE285     -0.1960
     99  CA       -19.2560  111.5960   33.0590 C.3   285  PHE285      0.1771
    100  C        -17.8770  111.0220   32.7110 C.2   285  PHE285      0.2619
    101  O        -17.6450  110.5420   31.6040 O.2   285  PHE285     -0.2715
    102  CB       -20.1200  111.6600   31.7990 C.3   285  PHE285      0.0574
    103  CG       -20.9800  110.4440   31.5930 C.ar  285  PHE285     -0.0200
    104  CD1      -20.4700  109.1680   31.8130 C.ar  285  PHE285     -0.0042
    105  CD2      -22.3000  110.5760   31.1730 C.ar  285  PHE285     -0.0042
    106  CE1      -21.2600  108.0450   31.6200 C.ar  285  PHE285     -0.0003
    107  CE2      -23.1020  109.4620   30.9760 C.ar  285  PHE285     -0.0003
    108  CZ       -22.5850  108.1930   31.1990 C.ar  285  PHE285     -0.0000
    109  N        -16.9610  111.1010   33.6690 N.am  286  ARG286     -0.1963
    110  CA       -15.6040  110.5900   33.5150 C.3   286  ARG286      0.1729
    111  C        -15.2240  110.1100   34.8980 C.2   286  ARG286      0.2616
    112  O        -15.4750  110.7910   35.8920 O.2   286  ARG286     -0.2715
    113  CB       -14.6420  111.6790   33.0540 C.3   286  ARG286      0.0348
    114  CG       -14.7970  112.0780   31.6130 C.3   286  ARG286      0.0492
    115  CD       -14.3930  110.9530   30.6990 C.3   286  ARG286      0.2205
    116  NE       -14.3600  111.3350   29.2880 N.pl3 286  ARG286     -0.0865
    117  CZ       -15.4300  111.4270   28.5090 C.cat 286  ARG286      0.5346
    118  NH1      -16.6380  111.1690   28.9990 N.pl3 286  ARG286      0.1354
    119  NH2      -15.2890  111.7450   27.2310 N.pl3 286  ARG286      0.1354
    120  N        -14.6230  108.9310   34.9540 N.am  287  PHE287     -0.1974
    121  CA       -14.2570  108.3260   36.2160 C.3   287  PHE287      0.1639
    122  C        -12.8080  107.8360   36.1670 C.2   287  PHE287      0.2290
    123  O        -12.3230  107.3700   35.1330 O.2   287  PHE287     -0.2864
    124  CB       -15.2410  107.2000   36.4720 C.3   287  PHE287      0.0560
    125  CG       -16.6220  107.5070   35.9750 C.ar  287  PHE287     -0.0200
    126  CD1      -17.4160  108.4500   36.6170 C.ar  287  PHE287     -0.0042
    127  CD2      -17.1090  106.9070   34.8210 C.ar  287  PHE287     -0.0042
    128  CE1      -18.6760  108.7930   36.1130 C.ar  287  PHE287     -0.0003
    129  CE2      -18.3670  107.2460   34.3110 C.ar  287  PHE287     -0.0003
    130  CZ       -19.1470  108.1910   34.9600 C.ar  287  PHE287     -0.0000
    131  N        -28.6310  113.5260   34.6930 N.3   327  PHE327     -0.1227
    132  CA       -28.0430  113.1810   35.9870 C.3   327  PHE327      0.1736
    133  C        -26.6880  113.8340   36.2190 C.2   327  PHE327      0.2595
    134  O        -26.4660  114.5380   37.2090 O.2   327  PHE327     -0.2718
    135  CB       -27.8450  111.6740   36.1180 C.3   327  PHE327      0.0547
    136  CG       -28.0980  111.1530   37.5040 C.ar  327  PHE327     -0.0202
    137  CD1      -27.7230  111.8930   38.6130 C.ar  327  PHE327     -0.0042
    138  CD2      -28.7780  109.9540   37.7030 C.ar  327  PHE327     -0.0042
    139  CE1      -28.0310  111.4590   39.8960 C.ar  327  PHE327     -0.0003
    140  CE2      -29.0880  109.5080   38.9880 C.ar  327  PHE327     -0.0003
    141  CZ       -28.7190  110.2630   40.0840 C.ar  327  PHE327     -0.0000
    142  N        -25.7740  113.5740   35.2980 N.am  328  PHE328     -0.1976
    143  CA       -24.4310  114.0820   35.3990 C.3   328  PHE328      0.1639
    144  C        -24.3470  115.5820   35.3300 C.2   328  PHE328      0.2290
    145  O        -23.5260  116.1840   36.0160 O.2   328  PHE328     -0.2864
    146  CB       -23.5760  113.4270   34.3290 C.3   328  PHE328      0.0560
    147  CG       -23.6550  111.9380   34.3610 C.ar  328  PHE328     -0.0200
    148  CD1      -24.7490  111.2780   33.8170 C.ar  328  PHE328     -0.0042
    149  CD2      -22.6820  111.1950   35.0220 C.ar  328  PHE328     -0.0042
    150  CE1      -24.8750  109.9060   33.9340 C.ar  328  PHE328     -0.0003
    151  CE2      -22.8010  109.8190   35.1450 C.ar  328  PHE328     -0.0003
    152  CZ       -23.9000  109.1740   34.6000 C.ar  328  PHE328     -0.0000
    153  N        -24.9820  117.0840   38.8090 N.3   331  TYR331     -0.1227
    154  CA       -23.9150  116.9750   39.7900 C.3   331  TYR331      0.1736
    155  C        -22.6500  117.7740   39.5200 C.2   331  TYR331      0.2596
    156  O        -21.9740  118.1810   40.4620 O.2   331  TYR331     -0.2718
    157  CB       -23.5350  115.5120   40.0050 C.3   331  TYR331      0.0548
    158  CG       -24.4290  114.7750   40.9740 C.ar  331  TYR331     -0.0200
    159  CD1      -25.7540  114.4900   40.6530 C.ar  331  TYR331     -0.0009
    160  CD2      -23.9470  114.3600   42.2160 C.ar  331  TYR331     -0.0009
    161  CE1      -26.5830  113.8020   41.5520 C.ar  331  TYR331      0.0417
    162  CE2      -24.7630  113.6750   43.1200 C.ar  331  TYR331      0.0417
    163  CZ       -26.0810  113.3980   42.7810 C.ar  331  TYR331      0.1957
    164  OH       -26.8920  112.7230   43.6630 O.3   331  TYR331     -0.2866
    165  N        -22.3230  118.0190   38.2580 N.am  332  GLY332     -0.1957
    166  CA       -21.1010  118.7540   37.9920 C.3   332  GLY332      0.1869
    167  C        -21.1110  119.8860   36.9840 C.2   332  GLY332      0.2309
    168  O        -20.0480  120.4100   36.6590 O.2   332  GLY332     -0.2863
    169  N        -31.0240  108.7320   33.5880 N.3   437  HIS437     -0.1241
    170  CA       -30.0980  107.6200   33.4410 C.3   437  HIS437      0.1621
    171  C        -30.2720  106.6290   34.5880 C.2   437  HIS437      0.2264
    172  O        -30.3480  107.0180   35.7480 O.2   437  HIS437     -0.2867
    173  CB       -28.6600  108.1470   33.4420 C.3   437  HIS437      0.0745
    174  CG       -27.6210  107.0890   33.2430 C.ar  437  HIS437      0.0817
    175  ND1      -27.3080  106.5780   32.0020 N.ar  437  HIS437     -0.2268
    176  CD2      -26.8080  106.4590   34.1270 C.ar  437  HIS437      0.1154
    177  CE1      -26.3450  105.6820   32.1270 C.ar  437  HIS437      0.1986
    178  NE2      -26.0230  105.5900   33.4060 N.ar  437  HIS437     -0.2212
@<TRIPOS>BOND
     1   119   117    1
     2   117   118    1
     3   117   116    2
     4   116   115    1
     5   115   114    1
     6   107   105   ar
     7   107   108   ar
     8   105   103   ar
     9   108   106   ar
    10   103   102    1
    11   103   104   ar
    12   101   100    2
    13   114   113    1
    14   106   104   ar
    15   102    99    1
    16    93    92    2
    17   175   177   ar
    18   175   174   ar
    19    97    95    1
    20   177   178   ar
    21    95    94    1
    22    88    89    1
    23    88    85    1
    24   100    99    1
    25   100   109   am
    26   113   110    1
    27    99    98    1
    28    92    98   am
    29    92    91    1
    30   174   173    1
    31   174   176   ar
    32   178   176   ar
    33    90    91    1
    34    90    86   am
    35   170   173    1
    36   170   169    1
    37   170   171    1
    38   110   109    1
    39   110   111    1
    40    85    86    1
    41    85    84    1
    42    94    91    1
    43    94    96    1
    44   148   150   ar
    45   148   147   ar
    46   150   152   ar
    47    86    87    2
    48   129   127   ar
    49   129   130   ar
    50   146   147    1
    51   146   143    1
    52   147   149   ar
    53   171   172    2
    54   152   151   ar
    55   131   132    1
    56   127   125   ar
    57   111   120   am
    58   111   112    2
    59   120   121    1
    60   130   128   ar
    61   149   151   ar
    62   123   122    2
    63   142   143    1
    64   142   133   am
    65   144   143    1
    66   144   145    2
    67    78    79    2
    68    78    77    1
    69   125   124    1
    70   125   126   ar
    71   132   135    1
    72   132   133    1
    73    83    81    1
    74   128   126   ar
    75   135   136    1
    76   122   121    1
    77   121   124    1
    78   133   134    2
    79    77    80    1
    80    77    76    1
    81    80    81    1
    82   168   167    2
    83    81    82    1
    84   167   166    1
    85   136   138   ar
    86   136   137   ar
    87   138   140   ar
    88   166   165    1
    89   165   155   am
    90   137   139   ar
    91   153   154    1
    92   140   141   ar
    93    57    59   ar
    94    57    55   ar
    95   155   154    1
    96   155   156    2
    97    59    60   ar
    98    50    51    1
    99    74    72   ar
   100    74    75   ar
   101    49    47   ar
   102    49    48   ar
   103   154   157    1
   104   139   141   ar
   105   157   158    1
   106    47    45   ar
   107    65    64    2
   108    72    69   ar
   109    48    46   ar
   110    75    73   ar
   111    54    55    1
   112    54    51    1
   113   159   158   ar
   114   159   161   ar
   115    55    56   ar
   116    51    52    1
   117    60    61    1
   118    60    58   ar
   119   158   160   ar
   120    45    44   ar
   121    45    43   ar
   122    64    63    1
   123    46    43   ar
   124   161   163   ar
   125    44    42   ar
   126    69    71   ar
   127    69    67   ar
   128    63    66    1
   129    63    62    1
   130    43    41   ar
   131    73    71   ar
   132    56    58   ar
   133    52    53    2
   134    66    67    1
   135   160   162   ar
   136    71    70   ar
   137    67    68   ar
   138    42    41   ar
   139    41    40    1
   140   163   162   ar
   141   163   164    1
   142    70    68   ar
   143    40    37    1
   144    37    36    1
   145    37    38    1
   146    31    30    1
   147    31    34    1
   148    31    32    1
   149    20    18   ar
   150    26    27    1
   151    26    25    1
   152    28    27    2
   153    34    35    1
   154    27    29   am
   155    39    38    2
   156    33    32    2
   157    18    19   ar
   158    18    17    1
   159     8    10   ar
   160     8     6   ar
   161     5     6    1
   162     5     2    1
   163    10    11   ar
   164     6     7   ar
   165    25    22    1
   166    17    14    1
   167    11    12    1
   168    11     9   ar
   169     7     9   ar
   170     4     3    2
   171     1     2    1
   172     2     3    1
   173    14    13    1
   174    14    15    1
   175    22    23    1
   176    22    21    1
   177    23    24    2
   178    15    16    2
