@<TRIPOS>MOLECULE
tmp/2j3uF02.pdb
 98 96 0 0 0
SMALL
GASTEIGER

@<TRIPOS>ATOM
      1  N          6.2890  -17.1110   14.5210 N.3    53  VAL53      -0.1231
      2  CA         5.4270  -15.9520   14.5160 C.3    53  VAL53       0.1692
      3  C          5.8420  -14.8590   13.5100 C.2    53  VAL53       0.2592
      4  O          4.9900  -14.0960   13.0430 O.2    53  VAL53      -0.2718
      5  CB         5.2970  -15.4100   15.9550 C.3    53  VAL53       0.0266
      6  CG1        6.2260  -14.2110   16.1890 C.3    53  VAL53       0.0020
      7  CG2        3.8560  -15.0810   16.2650 C.3    53  VAL53       0.0020
      8  N          7.1260  -14.7940   13.1440 N.am   54  ASP54      -0.1974
      9  CA         7.5950  -13.6840   12.3030 C.3    54  ASP54       0.1709
     10  C          8.8550  -13.9650   11.4780 C.2    54  ASP54       0.2293
     11  O          9.2490  -13.1510   10.6580 O.2    54  ASP54      -0.2864
     12  CB         7.7730  -12.4080   13.1380 C.3    54  ASP54       0.1436
     13  CG         8.7900  -12.5700   14.2520 C.2    54  ASP54       0.3671
     14  OD1        9.5070  -13.5840   14.3080 O.co2  54  ASP54      -0.2456
     15  OD2        8.8740  -11.6640   15.0960 O.co2  54  ASP54      -0.2456
     16  N         -1.7960  -20.3440   11.9570 N.3   100  VAL100     -0.1245
     17  CA        -2.4460  -19.1530   11.4210 C.3   100  VAL100      0.1561
     18  C         -1.8140  -18.8230   10.0810 C.2   100  VAL100      0.2260
     19  O         -0.5960  -18.7370    9.9730 O.2   100  VAL100     -0.2867
     20  CB        -2.3500  -17.9360   12.3880 C.3   100  VAL100      0.0252
     21  CG1       -3.1540  -16.7620   11.8630 C.3   100  VAL100      0.0019
     22  CG2       -2.8430  -18.3200   13.7790 C.3   100  VAL100      0.0019
     23  N         -1.6730  -16.2410    6.5100 N.3   102  PHE102     -0.1227
     24  CA        -1.4140  -14.8160    6.3540 C.3   102  PHE102      0.1736
     25  C         -2.6470  -13.9430    6.1890 C.2   102  PHE102      0.2595
     26  O         -2.5340  -12.7270    6.2250 O.2   102  PHE102     -0.2718
     27  CB        -0.3680  -14.5560    5.2700 C.3   102  PHE102      0.0547
     28  CG         1.0270  -14.7330    5.7630 C.ar  102  PHE102     -0.0202
     29  CD1        1.7230  -13.6610    6.3020 C.ar  102  PHE102     -0.0042
     30  CD2        1.6280  -15.9830    5.7470 C.ar  102  PHE102     -0.0042
     31  CE1        3.0120  -13.8300    6.7940 C.ar  102  PHE102     -0.0003
     32  CE2        2.9050  -16.1580    6.2330 C.ar  102  PHE102     -0.0003
     33  CZ         3.5970  -15.0840    6.7620 C.ar  102  PHE102     -0.0000
     34  N         -3.8130  -14.5620    6.0210 N.am  103  GLU103     -0.1965
     35  CA        -5.0740  -13.8380    6.1080 C.3   103  GLU103      0.1733
     36  C         -5.6710  -14.0240    7.5030 C.2   103  GLU103      0.2616
     37  O         -6.8690  -13.8770    7.6880 O.2   103  GLU103     -0.2715
     38  CB        -6.0580  -14.3150    5.0360 C.3   103  GLU103      0.0429
     39  CG        -5.6070  -14.0190    3.5950 C.3   103  GLU103      0.1163
     40  CD        -6.4280  -14.7710    2.5380 C.2   103  GLU103      0.3649
     41  OE1       -6.6290  -16.0010    2.6860 O.co2 103  GLU103     -0.2457
     42  OE2       -6.8670  -14.1320    1.5510 O.co2 103  GLU103     -0.2457
     43  N         -4.8290  -14.3690    8.4740 N.am  104  ASP104     -0.1957
     44  CA        -5.2610  -14.5330    9.8670 C.3   104  ASP104      0.1840
     45  C         -6.3660  -15.5600   10.0930 C.2   104  ASP104      0.2622
     46  O         -7.1130  -15.4560   11.0670 O.2   104  ASP104     -0.2715
     47  CB        -5.6890  -13.1910   10.4790 C.3   104  ASP104      0.1450
     48  CG        -4.5390  -12.2070   10.5900 C.2   104  ASP104      0.3671
     49  OD1       -3.3680  -12.6510   10.6340 O.co2 104  ASP104     -0.2456
     50  OD2       -4.8000  -10.9860   10.6320 O.co2 104  ASP104     -0.2456
     51  N         -6.4720  -16.5420    9.2010 N.am  105  ASN105     -0.1958
     52  CA        -7.3960  -17.6560    9.4020 C.3   105  ASN105      0.1819
     53  C         -6.7360  -18.7270   10.2760 C.2   105  ASN105      0.2621
     54  O         -5.5700  -19.0780   10.0570 O.2   105  ASN105     -0.2715
     55  CB        -7.8160  -18.2640    8.0610 C.3   105  ASN105      0.1195
     56  CG        -8.4310  -17.2370    7.1160 C.2   105  ASN105      0.2630
     57  OD1       -9.3430  -16.4900    7.4830 O.2   105  ASN105     -0.2716
     58  ND2       -7.9300  -17.2010    5.8850 N.am  105  ASN105     -0.0877
     59  N         -7.4810  -19.2310   11.2630 N.am  106  TYR106     -0.1974
     60  CA        -6.9720  -20.2310   12.2000 C.3   106  TYR106      0.1639
     61  C         -7.3530  -21.6500   11.7800 C.2   106  TYR106      0.2290
     62  O         -8.4970  -21.9070   11.3810 O.2   106  TYR106     -0.2864
     63  CB        -7.5170  -19.9860   13.6170 C.3   106  TYR106      0.0560
     64  CG        -6.9740  -18.7600   14.3240 C.ar  106  TYR106     -0.0198
     65  CD1       -6.0820  -18.8830   15.3900 C.ar  106  TYR106     -0.0009
     66  CD2       -7.3570  -17.4770   13.9350 C.ar  106  TYR106     -0.0009
     67  CE1       -5.5830  -17.7570   16.0550 C.ar  106  TYR106      0.0417
     68  CE2       -6.8540  -16.3430   14.5840 C.ar  106  TYR106      0.0417
     69  CZ        -5.9750  -16.4890   15.6410 C.ar  106  TYR106      0.1957
     70  OH        -5.4870  -15.3620   16.2890 O.3   106  TYR106     -0.2866
     71  N         10.7840  -20.0830    7.2700 N.3   183  TYR183     -0.1241
     72  CA         9.6810  -19.1290    7.3510 C.3   183  TYR183      0.1605
     73  C          9.4900  -18.4710    5.9860 C.2   183  TYR183      0.2264
     74  O          9.9650  -17.3510    5.7390 O.2   183  TYR183     -0.2867
     75  CB         9.9400  -18.0910    8.4380 C.3   183  TYR183      0.0534
     76  CG         8.6940  -17.3480    8.8870 C.ar  183  TYR183     -0.0201
     77  CD1        7.9440  -17.8040    9.9560 C.ar  183  TYR183     -0.0009
     78  CD2        8.2810  -16.1830    8.2430 C.ar  183  TYR183     -0.0009
     79  CE1        6.8110  -17.1260   10.3670 C.ar  183  TYR183      0.0417
     80  CE2        7.1540  -15.4960    8.6460 C.ar  183  TYR183      0.0417
     81  CZ         6.4230  -15.9730    9.7010 C.ar  183  TYR183      0.1957
     82  OH         5.3020  -15.3000   10.1040 O.3   183  TYR183     -0.2866
     83  N          1.8790  -18.2460    8.8260 N.3   208  LYS208     -0.1231
     84  CA         2.3220  -17.0670    9.5820 C.3   208  LYS208      0.1693
     85  C          2.6750  -17.3940   11.0270 C.2   208  LYS208      0.2591
     86  O          3.6920  -16.9210   11.5610 O.2   208  LYS208     -0.2718
     87  CB         1.2160  -16.0090    9.5670 C.3   208  LYS208      0.0285
     88  CG         1.5390  -14.6760   10.2120 C.3   208  LYS208      0.0035
     89  CD         0.3380  -13.7710   10.0050 C.3   208  LYS208      0.0206
     90  CE         0.2080  -12.7250   11.0650 C.3   208  LYS208      0.1093
     91  NZ        -0.9210  -11.7920   10.7250 N.3   208  LYS208     -0.1314
     92  N          1.8110  -18.1820   11.6700 N.am  209  VAL209     -0.1980
     93  CA         2.0480  -18.5990   13.0480 C.3   209  VAL209      0.1595
     94  C          1.9200  -20.1130   13.1460 C.2   209  VAL209      0.2287
     95  O          1.0950  -20.7240   12.4490 O.2   209  VAL209     -0.2864
     96  CB         1.0370  -17.9560   14.0380 C.3   209  VAL209      0.0276
     97  CG1        1.3040  -18.4180   15.4860 C.3   209  VAL209      0.0022
     98  CG2        1.0350  -16.4160   13.9160 C.3   209  VAL209      0.0022
@<TRIPOS>BOND
     1    42    40   ar
     2    40    41   ar
     3    40    39    1
     4    39    38    1
     5    38    35    1
     6    27    28    1
     7    27    24    1
     8    74    73    2
     9    30    28   ar
    10    30    32   ar
    11    28    29   ar
    12    58    56   am
    13    73    72    1
    14    34    35    1
    15    34    25   am
    16    35    36    1
    17    25    26    2
    18    25    24    1
    19    32    33   ar
    20    29    31   ar
    21    24    23    1
    22    33    31   ar
    23    56    57    2
    24    56    55    1
    25    71    72    1
    26    72    75    1
    27    36    37    2
    28    36    43   am
    29    55    52    1
    30    78    80   ar
    31    78    76   ar
    32    75    76    1
    33    43    44    1
    34    80    81   ar
    35    83    84    1
    36    76    77   ar
    37    51    52    1
    38    51    45   am
    39    52    53    1
    40    87    84    1
    41    87    88    1
    42    84    85    1
    43    81    82    1
    44    81    79   ar
    45    44    45    1
    46    44    47    1
    47    77    79   ar
    48    19    18    2
    49    89    88    1
    50    89    90    1
    51    54    53    2
    52    18    17    1
    53    45    46    2
    54    53    59   am
    55    47    48    1
    56    48    50   ar
    57    48    49   ar
    58    11    10    2
    59    91    90    1
    60    85    86    2
    61    85    92   am
    62    59    60    1
    63    62    61    2
    64    17    16    1
    65    17    20    1
    66    10     9    1
    67    92    93    1
    68    61    60    1
    69    21    20    1
    70    60    63    1
    71     9    12    1
    72     9     8    1
    73    20    22    1
    74    95    94    2
    75     4     3    2
    76    93    94    1
    77    93    96    1
    78    12    13    1
    79     8     3   am
    80     3     2    1
    81    63    64    1
    82    98    96    1
    83    66    64   ar
    84    66    68   ar
    85    96    97    1
    86    13    14   ar
    87    13    15   ar
    88    64    65   ar
    89     2     1    1
    90     2     5    1
    91    68    69   ar
    92    65    67   ar
    93    69    67   ar
    94    69    70    1
    95     5     6    1
    96     5     7    1
