@<TRIPOS>MOLECULE
tmp/2j3uF01.pdb
 79 72 0 0 0
SMALL
GASTEIGER

@<TRIPOS>ATOM
      1  N         -1.7820  -15.3000   29.3150 N.3    20  SER20      -0.1217
      2  CA        -0.6980  -16.0250   28.6930 C.3    20  SER20       0.1889
      3  C          0.6110  -15.2850   28.9410 C.2    20  SER20       0.2288
      4  O          0.6430  -14.0540   29.0340 O.2    20  SER20      -0.2866
      5  CB        -0.9540  -16.1720   27.1960 C.3    20  SER20       0.2089
      6  OG        -2.1660  -16.8650   26.9530 O.3    20  SER20      -0.2183
      7  N          6.3070  -21.0420   28.2780 N.3    36  LEU36      -0.1231
      8  CA         5.2310  -20.1820   27.8060 C.3    36  LEU36       0.1693
      9  C          3.9030  -20.8680   28.0310 C.2    36  LEU36       0.2592
     10  O          3.6580  -21.9580   27.4900 O.2    36  LEU36      -0.2718
     11  CB         5.3970  -19.8480   26.3140 C.3    36  LEU36       0.0284
     12  CG         4.2570  -19.0570   25.6650 C.3    36  LEU36       0.0019
     13  CD1        4.0700  -17.6990   26.3380 C.3    36  LEU36       0.0001
     14  CD2        4.4860  -18.8830   24.1380 C.3    36  LEU36       0.0001
     15  N          3.0500  -20.2450   28.8390 N.am   37  CYS37      -0.1956
     16  CA         1.7100  -20.7740   29.0590 C.3    37  CYS37       0.1843
     17  C          0.6960  -20.1040   28.1300 C.2    37  CYS37       0.2625
     18  O          0.6480  -18.8770   28.0250 O.2    37  CYS37      -0.2714
     19  CB         1.2730  -20.6000   30.5170 C.3    37  CYS37       0.0997
     20  SG         2.2960  -21.4770   31.7520 S.3    37  CYS37      -0.0797
     21  N         -0.1050  -20.9170   27.4500 N.am   38  ASP38      -0.1971
     22  CA        -1.2490  -20.4050   26.6980 C.3    38  ASP38       0.1709
     23  C         -2.4670  -20.6170   27.5840 C.2    38  ASP38       0.2293
     24  O         -2.8900  -21.7620   27.8030 O.2    38  ASP38      -0.2864
     25  CB        -1.3970  -21.1620   25.3830 C.3    38  ASP38       0.1436
     26  CG        -2.5860  -20.7020   24.5530 C.2    38  ASP38       0.3671
     27  OD1       -3.4990  -20.0200   25.0730 O.co2  38  ASP38      -0.2456
     28  OD2       -2.5980  -21.0350   23.3520 O.co2  38  ASP38      -0.2456
     29  N         -5.3560  -18.9500   27.0420 N.3    40  ASP40      -0.1225
     30  CA        -6.5040  -18.4060   26.3090 C.3    40  ASP40       0.1805
     31  C         -7.1040  -19.3700   25.3050 C.2    40  ASP40       0.2598
     32  O         -8.2620  -19.2040   24.9400 O.2    40  ASP40      -0.2718
     33  CB        -6.1340  -17.0930   25.5940 C.3    40  ASP40       0.1424
     34  CG        -7.3370  -16.1320   25.4300 C.2    40  ASP40       0.3668
     35  OD1       -8.3710  -16.2850   26.1360 O.co2  40  ASP40      -0.2456
     36  OD2       -7.2380  -15.1940   24.6040 O.co2  40  ASP40      -0.2456
     37  N         -6.3370  -20.3560   24.8390 N.am   41  THR41      -0.1953
     38  CA        -6.8030  -21.2480   23.7750 C.3    41  THR41       0.1897
     39  C         -7.4470  -22.5320   24.2970 C.2    41  THR41       0.2313
     40  O         -6.8960  -23.2200   25.1570 O.2    41  THR41      -0.2863
     41  CB        -5.6610  -21.6380   22.8080 C.3    41  THR41       0.1794
     42  OG1       -4.9840  -20.4610   22.3520 O.3    41  THR41      -0.2208
     43  CG2       -6.2030  -22.3900   21.6020 C.3    41  THR41       0.0378
     44  N          3.4830  -24.2780   25.8770 N.3    48  VAL48      -0.1245
     45  CA         3.9100  -24.1500   24.4870 C.3    48  VAL48       0.1561
     46  C          5.3860  -24.4750   24.3580 C.2    48  VAL48       0.2260
     47  O          6.2320  -23.8470   25.0230 O.2    48  VAL48      -0.2867
     48  CB         3.6860  -22.7050   23.9590 C.3    48  VAL48       0.0252
     49  CG1        3.9890  -22.6300   22.4700 C.3    48  VAL48       0.0019
     50  CG2        2.2470  -22.2290   24.2550 C.3    48  VAL48       0.0019
     51  N          7.0970  -22.2670   18.8320 N.3    51  ARG51      -0.1245
     52  CA         6.3910  -21.0800   18.4020 C.3    51  ARG51       0.1563
     53  C          7.0900  -20.4350   17.2240 C.2    51  ARG51       0.2260
     54  O          8.2990  -20.1660   17.2880 O.2    51  ARG51      -0.2867
     55  CB         6.2840  -20.0940   19.5680 C.3    51  ARG51       0.0307
     56  CG         5.3570  -18.9440   19.3200 C.3    51  ARG51       0.0489
     57  CD         5.0650  -18.2360   20.6290 C.3    51  ARG51       0.2205
     58  NE         3.9770  -17.2870   20.4720 N.pl3  51  ARG51      -0.0865
     59  CZ         4.1330  -15.9770   20.3240 C.cat  51  ARG51       0.5346
     60  NH1        5.3390  -15.4360   20.3400 N.pl3  51  ARG51       0.1354
     61  NH2        3.0740  -15.1980   20.1780 N.pl3  51  ARG51       0.1354
     62  N          2.0650  -22.9800   16.5510 N.3   211  GLU211     -0.1245
     63  CA         2.3170  -23.2250   17.9690 C.3   211  GLU211      0.1567
     64  C          2.0020  -24.6670   18.2910 C.2   211  GLU211      0.2260
     65  O          0.9490  -25.1790   17.9160 O.2   211  GLU211     -0.2867
     66  CB         1.4930  -22.2930   18.8760 C.3   211  GLU211      0.0388
     67  CG         2.0060  -20.8580   18.9580 C.3   211  GLU211      0.1160
     68  CD         1.2600  -20.0290   19.9900 C.2   211  GLU211      0.3649
     69  OE1        0.0980  -20.3760   20.3060 O.co2 211  GLU211     -0.2457
     70  OE2        1.8340  -19.0360   20.4950 O.co2 211  GLU211     -0.2457
     71  N          1.7120  -27.2070   21.5790 N.3   213  LYS213     -0.1245
     72  CA         1.5400  -27.0980   23.0220 C.3   213  LYS213      0.1561
     73  C          0.9670  -28.3830   23.6430 C.2   213  LYS213      0.2260
     74  O          0.2700  -29.1450   22.9790 O.2   213  LYS213     -0.2867
     75  CB         0.6160  -25.9210   23.3320 C.3   213  LYS213      0.0271
     76  CG        -0.6770  -25.9580   22.5380 C.3   213  LYS213      0.0035
     77  CD        -1.3760  -24.6140   22.5230 C.3   213  LYS213      0.0206
     78  CE        -0.7830  -23.6710   21.5010 C.3   213  LYS213      0.1093
     79  NZ        -1.6010  -22.4200   21.3540 N.3   213  LYS213     -0.1314
@<TRIPOS>BOND
     1    62    63    1
     2    53    54    2
     3    53    52    1
     4    65    64    2
     5    63    64    1
     6    63    66    1
     7    52    51    1
     8    52    55    1
     9    66    67    1
    10    67    68    1
    11    56    55    1
    12    56    57    1
    13    68    69   ar
    14    68    70   ar
    15    61    59    1
    16    59    60    1
    17    59    58    2
    18    58    57    1
    19    79    78    1
    20    78    77    1
    21    71    72    1
    22    43    41    1
    23    42    41    1
    24    49    48    1
    25    77    76    1
    26    76    75    1
    27    41    38    1
    28    74    73    2
    29    72    75    1
    30    72    73    1
    31    28    26   ar
    32    38    39    1
    33    38    37    1
    34    48    50    1
    35    48    45    1
    36    14    12    1
    37    39    40    2
    38    46    45    1
    39    46    47    2
    40    45    44    1
    41    26    27   ar
    42    26    25    1
    43    36    34   ar
    44    37    31   am
    45    32    31    2
    46    31    30    1
    47    25    22    1
    48    34    33    1
    49    34    35   ar
    50    33    30    1
    51    12    11    1
    52    12    13    1
    53    30    29    1
    54    11     8    1
    55    22    21    1
    56    22    23    1
    57     6     5    1
    58     5     2    1
    59    21    17   am
    60    10     9    2
    61    23    24    2
    62     8     9    1
    63     8     7    1
    64    18    17    2
    65     9    15   am
    66    17    16    1
    67     2     3    1
    68     2     1    1
    69    15    16    1
    70     3     4    2
    71    16    19    1
    72    19    20    1
