@<TRIPOS>MOLECULE
tmp/2j3uE02.pdb
 92 88 0 0 0
SMALL
GASTEIGER

@<TRIPOS>ATOM
      1  N         -2.6040    6.0090   15.8010 N.3   102  ASP102     -0.1225
      2  CA        -3.1580    5.5600   14.5380 C.3   102  ASP102      0.1805
      3  C         -2.0760    4.9510   13.6310 C.2   102  ASP102      0.2598
      4  O         -0.9020    4.9000   14.0020 O.2   102  ASP102     -0.2718
      5  CB        -3.9750    6.6640   13.8450 C.3   102  ASP102      0.1424
      6  CG        -3.1240    7.8030   13.3190 C.2   102  ASP102      0.3668
      7  OD1       -1.8960    7.6420   13.1240 O.co2 102  ASP102     -0.2456
      8  OD2       -3.7090    8.8820   13.0880 O.co2 102  ASP102     -0.2456
      9  N         -2.4720    4.4930   12.4470 N.am  103  PHE103     -0.1962
     10  CA        -1.5570    3.7970   11.5600 C.3   103  PHE103      0.1771
     11  C         -0.6570    4.7670   10.7980 C.2   103  PHE103      0.2619
     12  O          0.1580    4.3440    9.9770 O.2   103  PHE103     -0.2715
     13  CB        -2.3240    2.8590   10.6040 C.3   103  PHE103      0.0574
     14  CG        -2.8370    1.6040   11.2710 C.ar  103  PHE103     -0.0200
     15  CD1       -2.0950    0.4330   11.2400 C.ar  103  PHE103     -0.0042
     16  CD2       -4.0520    1.6040   11.9440 C.ar  103  PHE103     -0.0042
     17  CE1       -2.5670   -0.7350   11.8670 C.ar  103  PHE103     -0.0003
     18  CE2       -4.5260    0.4510   12.5730 C.ar  103  PHE103     -0.0003
     19  CZ        -3.7740   -0.7200   12.5340 C.ar  103  PHE103     -0.0000
     20  N         -0.7870    6.0620   11.0800 N.am  104  GLU104     -0.1977
     21  CA         0.0780    7.0660   10.4560 C.3   104  GLU104      0.1602
     22  C          1.0350    7.6830   11.4810 C.2   104  GLU104      0.2287
     23  O          1.5950    8.7550   11.2730 O.2   104  GLU104     -0.2864
     24  CB        -0.7460    8.1330    9.7350 C.3   104  GLU104      0.0415
     25  CG        -1.7620    7.5490    8.7530 C.3   104  GLU104      0.1163
     26  CD        -1.8680    8.3420    7.4590 C.2   104  GLU104      0.3649
     27  OE1       -1.6710    9.5840    7.4880 O.co2 104  GLU104     -0.2457
     28  OE2       -2.1350    7.7210    6.3950 O.co2 104  GLU104     -0.2457
     29  N          0.3690    8.9420   14.4290 N.3   106  ASN106     -0.1240
     30  CA        -0.1420   10.0620   15.2020 C.3   106  ASN106      0.1653
     31  C         -0.5900    9.5800   16.5730 C.2   106  ASN106      0.2266
     32  O         -1.4510    8.7130   16.6710 O.2   106  ASN106     -0.2867
     33  CB        -1.3070   10.7280   14.4810 C.3   106  ASN106      0.1155
     34  CG        -0.8750   11.4880   13.2660 C.2   106  ASN106      0.2627
     35  OD1        0.0700   12.2720   13.3170 O.2   106  ASN106     -0.2716
     36  ND2       -1.5650   11.2650   12.1530 N.am  106  ASN106     -0.0877
     37  N         -2.3830   10.2120   20.1710 N.3   108  GLN108     -0.1245
     38  CA        -3.4010   10.9980   20.8640 C.3   108  GLN108      0.1566
     39  C         -3.6370   10.4120   22.2570 C.2   108  GLN108      0.2260
     40  O         -3.5200    9.1990   22.4590 O.2   108  GLN108     -0.2867
     41  CB        -4.7290   10.9700   20.0920 C.3   108  GLN108      0.0367
     42  CG        -4.7790   11.8250   18.8220 C.3   108  GLN108      0.0905
     43  CD        -6.1060   11.6810   18.0840 C.2   108  GLN108      0.2608
     44  OE1       -6.7460   10.6170   18.1120 O.2   108  GLN108     -0.2717
     45  NE2       -6.5290   12.7490   17.4230 N.am  108  GLN108     -0.0878
     46  N         -8.1160   -2.2140   11.7720 N.3   186  ARG186     -0.1231
     47  CA        -6.9770   -1.6600   11.0190 C.3   186  ARG186      0.1694
     48  C         -7.2860   -0.3930   10.2140 C.2   186  ARG186      0.2593
     49  O         -7.4570   -0.4400    8.9990 O.2   186  ARG186     -0.2718
     50  CB        -6.3520   -2.7300   10.1120 C.3   186  ARG186      0.0321
     51  CG        -5.6770   -3.8330   10.9000 C.3   186  ARG186      0.0489
     52  CD        -5.2050   -5.0240   10.0640 C.3   186  ARG186      0.2205
     53  NE        -5.1560   -6.2030   10.9400 N.pl3 186  ARG186     -0.0865
     54  CZ        -4.1310   -6.4980   11.7480 C.cat 186  ARG186      0.5346
     55  NH1       -3.0430   -5.7190   11.7670 N.pl3 186  ARG186      0.1354
     56  NH2       -4.1890   -7.5750   12.5360 N.pl3 186  ARG186      0.1354
     57  N         -7.3300    0.7450   10.8930 N.am  187  GLY187     -0.1942
     58  CA        -7.5740    2.0120   10.2210 C.3   187  GLY187      0.2014
     59  C         -9.0240    2.1720    9.8060 C.2   187  GLY187      0.2639
     60  O         -9.9290    1.7680   10.5260 O.2   187  GLY187     -0.2714
     61  N         -9.2380    2.7530    8.6240 N.am  188  THR188     -0.1950
     62  CA       -10.5740    3.0120    8.1200 C.3   188  THR188      0.1897
     63  C        -11.4120    1.7340    7.9370 C.2   188  THR188      0.2313
     64  O        -10.9190    0.7090    7.4430 O.2   188  THR188     -0.2863
     65  CB       -10.5060    3.7860    6.8040 C.3   188  THR188      0.1794
     66  OG1       -9.9310    5.0750    7.0560 O.3   188  THR188     -0.2208
     67  CG2      -11.8900    3.9660    6.2070 C.3   188  THR188      0.0378
     68  N        -11.6930   11.4580   18.6430 N.3   201  GLY201     -0.1210
     69  CA       -10.3430   11.2720   18.1190 C.3   201  GLY201      0.1956
     70  C        -10.3450   11.0860   16.6160 C.2   201  GLY201      0.2611
     71  O        -10.0810   12.0150   15.8730 O.2   201  GLY201     -0.2717
     72  N        -10.6650    9.8830   16.1560 N.am  202  LYS202     -0.1979
     73  CA       -10.6210    9.5820   14.7250 C.3   202  LYS202      0.1596
     74  C        -12.0010    9.1650   14.1990 C.2   202  LYS202      0.2287
     75  O        -12.1440    8.7450   13.0450 O.2   202  LYS202     -0.2864
     76  CB        -9.5690    8.4940   14.4630 C.3   202  LYS202      0.0298
     77  CG        -8.1330    8.9210   14.8110 C.3   202  LYS202      0.0038
     78  CD        -7.2560    9.1530   13.5820 C.3   202  LYS202      0.0206
     79  CE        -8.0680    9.5060   12.3390 C.3   202  LYS202      0.1093
     80  NZ        -7.2120    9.9260   11.1920 N.3   202  LYS202     -0.1314
     81  N        -12.8540    4.6410   12.1220 N.3   206  TYR206     -0.1241
     82  CA       -11.4110    4.4620   12.1480 C.3   206  TYR206      0.1605
     83  C        -11.0130    3.7140   13.4050 C.2   206  TYR206      0.2264
     84  O        -11.3930    4.0990   14.5110 O.2   206  TYR206     -0.2867
     85  CB       -10.6630    5.8070   12.0620 C.3   206  TYR206      0.0534
     86  CG        -9.1730    5.6280   11.8060 C.ar  206  TYR206     -0.0201
     87  CD1       -8.6620    5.5870   10.5110 C.ar  206  TYR206     -0.0009
     88  CD2       -8.2890    5.4480   12.8600 C.ar  206  TYR206     -0.0009
     89  CE1       -7.2990    5.4040   10.2820 C.ar  206  TYR206      0.0417
     90  CE2       -6.9430    5.2470   12.6460 C.ar  206  TYR206      0.0417
     91  CZ        -6.4460    5.2340   11.3630 C.ar  206  TYR206      0.1957
     92  OH        -5.0890    5.0440   11.1820 O.3   206  TYR206     -0.2866
@<TRIPOS>BOND
     1    67    65    1
     2    28    26   ar
     3    65    66    1
     4    65    62    1
     5    64    63    2
     6    26    27   ar
     7    26    25    1
     8    63    62    1
     9    62    61    1
    10    61    59   am
    11    25    24    1
    12    49    48    2
    13    24    21    1
    14    59    58    1
    15    59    60    2
    16    12    11    2
    17    52    51    1
    18    52    53    1
    19    50    51    1
    20    50    47    1
    21    48    57   am
    22    48    47    1
    23    58    57    1
    24    89    87   ar
    25    89    91   ar
    26    21    20    1
    27    21    22    1
    28    87    86   ar
    29    13    14    1
    30    13    10    1
    31    11    20   am
    32    11    10    1
    33    53    54    2
    34    47    46    1
    35    92    91    1
    36    80    79    1
    37    15    14   ar
    38    15    17   ar
    39    14    16   ar
    40    23    22    2
    41    91    90   ar
    42    10     9    1
    43    54    55    1
    44    54    56    1
    45    86    85    1
    46    86    88   ar
    47    17    19   ar
    48    16    18   ar
    49    85    82    1
    50    81    82    1
    51    82    83    1
    52    36    34   am
    53    79    78    1
    54     9     3   am
    55    19    18   ar
    56    90    88   ar
    57    75    74    2
    58     8     6   ar
    59     7     6   ar
    60    34    35    2
    61    34    33    1
    62     6     5    1
    63    83    84    2
    64    78    77    1
    65     3     4    2
    66     3     2    1
    67     5     2    1
    68    74    73    1
    69    29    30    1
    70    76    73    1
    71    76    77    1
    72    33    30    1
    73     2     1    1
    74    73    72    1
    75    30    31    1
    76    71    70    2
    77    72    70   am
    78    31    32    2
    79    70    69    1
    80    45    43   am
    81    43    44    2
    82    43    42    1
    83    69    68    1
    84    42    41    1
    85    41    38    1
    86    37    38    1
    87    38    39    1
    88    39    40    2
