@<TRIPOS>MOLECULE
tmp/2j41D00.pdb
 150 141 0 0 0
SMALL
GASTEIGER

@<TRIPOS>ATOM
      1  N        -31.0900   13.3680   47.1210 N.3    11  SER11      -0.1202
      2  CA       -30.6160   13.2360   45.7370 C.3    11  SER11       0.2020
      3  C        -29.2270   13.8330   45.5720 C.2    11  SER11       0.2619
      4  O        -28.9340   14.9110   46.1100 O.2    11  SER11      -0.2717
      5  CB       -31.5910   13.9270   44.7600 C.3    11  SER11       0.2103
      6  OG       -32.9080   13.4280   44.9340 O.3    11  SER11      -0.2182
      7  N        -28.3670   13.1260   44.8440 N.am   12  GLY12      -0.1956
      8  CA       -27.0250   13.6280   44.5340 C.3    12  GLY12       0.1869
      9  C        -26.0390   13.6540   45.6970 C.2    12  GLY12       0.2309
     10  O        -24.9660   14.2470   45.5820 O.2    12  GLY12      -0.2863
     11  N        -24.8420    8.3430   47.4240 N.3    15  LYS15      -0.1245
     12  CA       -25.1850    6.9800   47.8920 C.3    15  LYS15       0.1561
     13  C        -24.5510    5.9040   47.0110 C.2    15  LYS15       0.2260
     14  O        -23.9580    4.9440   47.5030 O.2    15  LYS15      -0.2867
     15  CB       -26.7070    6.7650   47.8990 C.3    15  LYS15       0.0271
     16  CG       -27.5030    7.6310   48.8600 C.3    15  LYS15       0.0035
     17  CD       -29.0140    7.3920   48.7110 C.3    15  LYS15       0.0206
     18  CE       -29.6420    7.9210   47.4120 C.3    15  LYS15       0.1093
     19  NZ       -29.5910    9.3960   47.2750 N.3    15  LYS15      -0.1314
     20  N        -25.0010   -7.3770   48.4720 N.3    32  TYR32      -0.1241
     21  CA       -25.7000   -6.2530   47.8750 C.3    32  TYR32       0.1605
     22  C        -26.9910   -6.6610   47.1570 C.2    32  TYR32       0.2264
     23  O        -26.9670   -7.5370   46.2820 O.2    32  TYR32      -0.2867
     24  CB       -24.7720   -5.5410   46.8770 C.3    32  TYR32       0.0534
     25  CG       -25.4320   -4.3660   46.1940 C.ar   32  TYR32      -0.0201
     26  CD1      -25.9930   -3.3280   46.9410 C.ar   32  TYR32      -0.0009
     27  CD2      -25.5140   -4.3080   44.7950 C.ar   32  TYR32      -0.0009
     28  CE1      -26.6170   -2.2420   46.3140 C.ar   32  TYR32       0.0417
     29  CE2      -26.1240   -3.2220   44.1540 C.ar   32  TYR32       0.0417
     30  CZ       -26.6620   -2.1990   44.9200 C.ar   32  TYR32       0.1957
     31  OH       -27.2750   -1.1380   44.2960 O.3    32  TYR32      -0.2866
     32  N        -30.9180   -3.8960   42.4950 N.3    35  SER35      -0.1217
     33  CA       -32.2660   -3.3450   42.3610 C.3    35  SER35       0.1889
     34  C        -32.7800   -3.5990   40.9320 C.2    35  SER35       0.2288
     35  O        -32.0060   -3.8480   40.0240 O.2    35  SER35      -0.2866
     36  CB       -32.2150   -1.8380   42.6240 C.3    35  SER35       0.2089
     37  OG       -32.0390   -1.5740   44.0150 O.3    35  SER35      -0.2183
     38  N        -35.4630    2.3540   33.9890 N.3    39  ARG39      -0.1245
     39  CA       -34.6870    3.3210   33.2240 C.3    39  ARG39       0.1563
     40  C        -33.8090    2.5880   32.2290 C.2    39  ARG39       0.2260
     41  O        -33.5100    1.4080   32.4240 O.2    39  ARG39      -0.2867
     42  CB       -33.8470    4.2550   34.1100 C.3    39  ARG39       0.0307
     43  CG       -32.5740    3.6610   34.7210 C.3    39  ARG39       0.0489
     44  CD       -31.5290    4.7950   34.7870 C.3    39  ARG39       0.2205
     45  NE       -30.3880    4.5400   35.6750 N.pl3  39  ARG39      -0.0865
     46  CZ       -29.2690    3.9060   35.3280 C.cat  39  ARG39       0.5346
     47  NH1      -29.1240    3.3870   34.1070 N.pl3  39  ARG39       0.1354
     48  NH2      -28.2970    3.7750   36.2230 N.pl3  39  ARG39       0.1354
     49  N        -27.2410    2.2600   30.6130 N.3    42  ARG42      -0.1245
     50  CA       -26.2970    3.2800   30.1250 C.3    42  ARG42       0.1563
     51  C        -24.9440    2.6820   29.7290 C.2    42  ARG42       0.2260
     52  O        -24.6740    1.5070   30.0060 O.2    42  ARG42      -0.2867
     53  CB       -26.0890    4.3680   31.1860 C.3    42  ARG42       0.0307
     54  CG       -27.3410    5.1650   31.4960 C.3    42  ARG42       0.0489
     55  CD       -27.1870    5.9360   32.7590 C.3    42  ARG42       0.2205
     56  NE       -28.4290    6.6260   33.0950 N.pl3  42  ARG42      -0.0865
     57  CZ       -28.6320    7.3020   34.2180 C.cat  42  ARG42       0.5346
     58  NH1      -27.6800    7.3640   35.1450 N.pl3  42  ARG42       0.1354
     59  NH2      -29.8010    7.8950   34.4280 N.pl3  42  ARG42       0.1354
     60  N        -28.0150   -3.1650   37.6520 N.3    51  TYR51      -0.1241
     61  CA       -29.4480   -3.3120   37.9020 C.3    51  TYR51       0.1605
     62  C        -29.9370   -4.5470   37.1580 C.2    51  TYR51       0.2264
     63  O        -29.2830   -5.0300   36.2400 O.2    51  TYR51      -0.2867
     64  CB       -30.2470   -2.1080   37.3480 C.3    51  TYR51       0.0534
     65  CG       -30.1140   -0.8360   38.1520 C.ar   51  TYR51      -0.0201
     66  CD1      -30.9160   -0.6150   39.2700 C.ar   51  TYR51      -0.0009
     67  CD2      -29.1990    0.1510   37.7860 C.ar   51  TYR51      -0.0009
     68  CE1      -30.7870    0.5530   40.0390 C.ar   51  TYR51       0.0417
     69  CE2      -29.0680    1.3330   38.5490 C.ar   51  TYR51       0.0417
     70  CZ       -29.8750    1.5170   39.6700 C.ar   51  TYR51       0.1957
     71  OH       -29.7590    2.6640   40.4270 O.3    51  TYR51      -0.2866
     72  N        -39.9430   -2.6390   48.4190 N.3    70  GLU70      -0.1245
     73  CA       -39.8420   -1.2280   48.2930 C.3    70  GLU70       0.1567
     74  C        -39.8540   -0.9340   46.7770 C.2    70  GLU70       0.2260
     75  O        -39.1620   -1.6070   46.0210 O.2    70  GLU70      -0.2867
     76  CB       -38.4800   -0.9470   48.9610 C.3    70  GLU70       0.0388
     77  CG       -37.7480    0.2740   48.7510 C.3    70  GLU70       0.1160
     78  CD       -37.3770    0.5230   47.3530 C.2    70  GLU70       0.3649
     79  OE1      -36.4060   -0.0860   46.8330 O.co2  70  GLU70      -0.2457
     80  OE2      -38.0520    1.3960   46.8110 O.co2  70  GLU70      -0.2457
     81  N        -40.1740    2.8330   44.0180 N.3    72  ALA72      -0.1245
     82  CA       -40.4260    4.2620   43.8800 C.3    72  ALA72       0.1562
     83  C        -40.2370    4.6780   42.4370 C.2    72  ALA72       0.2260
     84  O        -39.6740    3.9330   41.6470 O.2    72  ALA72      -0.2867
     85  CB       -39.4610    5.0720   44.7800 C.3    72  ALA72       0.0290
     86  N        -38.4100    7.6850   40.1160 N.3    74  TYR74      -0.1241
     87  CA       -37.3590    8.7020   40.2210 C.3    74  TYR74       0.1605
     88  C        -37.0650    9.1870   38.8090 C.2    74  TYR74       0.2264
     89  O        -36.6840    8.3830   37.9360 O.2    74  TYR74      -0.2867
     90  CB       -36.1100    8.1170   40.9170 C.3    74  TYR74       0.0534
     91  CG       -34.9550    9.1000   41.0050 C.ar   74  TYR74      -0.0201
     92  CD1      -34.8760   10.0230   42.0510 C.ar   74  TYR74      -0.0009
     93  CD2      -33.9650    9.1200   40.0350 C.ar   74  TYR74      -0.0009
     94  CE1      -33.8210   10.9470   42.1100 C.ar   74  TYR74       0.0417
     95  CE2      -32.9180   10.0310   40.0860 C.ar   74  TYR74       0.0417
     96  CZ       -32.8500   10.9320   41.1210 C.ar   74  TYR74       0.1957
     97  OH       -31.8040   11.8260   41.1460 O.3    74  TYR74      -0.2866
     98  N        -37.8250    2.1780   40.2810 N.3    79  TYR79      -0.1227
     99  CA       -36.6730    1.5320   40.9040 C.3    79  TYR79       0.1740
    100  C        -37.2550    0.7510   42.0570 C.2    79  TYR79       0.2635
    101  O        -38.2090    1.1990   42.6950 O.2    79  TYR79      -0.2714
    102  CB       -35.6880    2.5620   41.4840 C.3    79  TYR79       0.0548
    103  CG       -35.0230    3.4320   40.4670 C.ar   79  TYR79      -0.0200
    104  CD1      -33.7050    3.1880   40.0630 C.ar   79  TYR79      -0.0009
    105  CD2      -35.7070    4.5030   39.8800 C.ar   79  TYR79      -0.0009
    106  CE1      -33.0940    3.9910   39.1130 C.ar   79  TYR79       0.0417
    107  CE2      -35.0890    5.3010   38.9060 C.ar   79  TYR79       0.0417
    108  CZ       -33.7870    5.0250   38.5420 C.ar   79  TYR79       0.1957
    109  OH       -33.1690    5.8140   37.6190 O.3    79  TYR79      -0.2866
    110  N        -36.6980   -0.4160   42.3420 N.am   80  GLY80      -0.1718
    111  CA       -37.2160   -1.1830   43.4500 C.2    80  GLY80       0.1480
    112  C        -36.3960   -2.3640   43.8910 C.2    80  GLY80       0.2821
    113  O        -35.5310   -2.8400   43.1560 O.2    80  GLY80      -0.2669
    114  N        -36.6880   -2.8060   45.1150 N.am   81  THR81      -0.1916
    115  CA       -35.9730   -3.8870   45.7960 C.3    81  THR81       0.1900
    116  C        -36.7460   -5.1970   45.7290 C.2    81  THR81       0.2313
    117  O        -37.7800   -5.3350   46.4070 O.2    81  THR81      -0.2863
    118  CB       -35.7020   -3.4960   47.2860 C.3    81  THR81       0.1794
    119  OG1      -34.8940   -2.3140   47.3060 O.3    81  THR81      -0.2208
    120  CG2      -34.9920   -4.6290   48.0350 C.3    81  THR81       0.0378
    121  N        -29.2290    0.2830   48.8070 N.3    99  GLU99      -0.1231
    122  CA       -28.8970    1.6720   48.5310 C.3    99  GLU99       0.1699
    123  C        -30.0530    2.1870   47.6840 C.2    99  GLU99       0.2592
    124  O        -30.2210    1.7610   46.5500 O.2    99  GLU99      -0.2718
    125  CB       -27.5510    1.7870   47.8100 C.3    99  GLU99       0.0402
    126  CG       -27.2740    3.1540   47.1870 C.3    99  GLU99       0.1161
    127  CD       -27.3360    3.1370   45.6790 C.2    99  GLU99       0.3649
    128  OE1      -26.8830    2.1400   45.0790 O.co2  99  GLU99      -0.2457
    129  OE2      -27.7980    4.1430   45.0950 O.co2  99  GLU99      -0.2457
    130  N        -30.8780    3.0370   48.2800 N.am  100  ILE100     -0.1966
    131  CA       -32.1670    3.4090   47.6720 C.3   100  ILE100      0.1727
    132  C        -32.4760    4.8420   48.0270 C.2   100  ILE100      0.2616
    133  O        -31.9120    5.3870   48.9910 O.2   100  ILE100     -0.2715
    134  CB       -33.3190    2.5020   48.1680 C.3   100  ILE100      0.0290
    135  CG1      -33.5290    2.6390   49.6830 C.3   100  ILE100      0.0022
    136  CG2      -33.0920    1.0120   47.7760 C.3   100  ILE100      0.0023
    137  CD1      -34.6100    1.7020   50.2430 C.3   100  ILE100      0.0001
    138  N        -33.3800    5.4650   47.2730 N.am  101  GLU101     -0.1977
    139  CA       -33.7600    6.8310   47.6070 C.3   101  GLU101      0.1602
    140  C        -34.7790    6.9150   48.7790 C.2   101  GLU101      0.2287
    141  O        -35.2470    5.8790   49.3020 O.2   101  GLU101     -0.2864
    142  CB       -34.1540    7.6270   46.3370 C.3   101  GLU101      0.0415
    143  CG       -35.3100    7.0310   45.5550 C.3   101  GLU101      0.1163
    144  CD       -36.6100    7.0880   46.3250 C.2   101  GLU101      0.3649
    145  OE1      -37.0660    6.0040   46.7810 O.co2 101  GLU101     -0.2457
    146  OE2      -37.1490    8.2110   46.5140 O.co2 101  GLU101     -0.2457
    147  N        -38.4820    5.1840   48.9590 N.3   104  GLY104     -0.1225
    148  CA       -38.3810    3.7500   49.0980 C.3   104  GLY104      0.1811
    149  C        -37.9730    3.3540   50.5110 C.2   104  GLY104      0.2280
    150  O        -38.5130    2.4090   51.0650 O.2   104  GLY104     -0.2866
@<TRIPOS>BOND
     1    51    52    2
     2    51    50    1
     3    50    49    1
     4    50    53    1
     5    53    54    1
     6    54    55    1
     7    40    41    2
     8    40    39    1
     9    55    56    1
    10    56    57    2
    11    39    38    1
    12    39    42    1
    13    47    46    1
    14    42    43    1
    15    57    59    1
    16    57    58    1
    17    43    44    1
    18    44    45    1
    19    46    45    2
    20    46    48    1
    21    63    62    2
    22    62    61    1
    23    64    61    1
    24    64    65    1
    25   109   108    1
    26    60    61    1
    27    67    65   ar
    28    67    69   ar
    29    89    88    2
    30    65    66   ar
    31   108   107   ar
    32   108   106   ar
    33    69    70   ar
    34    88    87    1
    35   107   105   ar
    36   106   104   ar
    37    66    68   ar
    38    70    68   ar
    39    70    71    1
    40   105   103   ar
    41    35    34    2
    42    93    95   ar
    43    93    91   ar
    44   104   103   ar
    45    95    96   ar
    46    86    87    1
    47    87    90    1
    48    98    99    1
    49   103   102    1
    50    99   102    1
    51    99   100    1
    52    90    91    1
    53    34    33    1
    54    91    92   ar
    55    96    97    1
    56    96    94   ar
    57    84    83    2
    58    92    94   ar
    59   100   110    1
    60   100   101    2
    61   110   111    2
    62    33    32    1
    63    33    36    1
    64    83    82    1
    65    36    37    1
    66   113   112    2
    67   111   112    1
    68    82    81    1
    69    82    85    1
    70   112   114   am
    71    29    27   ar
    72    29    30   ar
    73    31    30    1
    74     8     7    1
    75     8     9    1
    76     5     6    1
    77     5     2    1
    78    27    25   ar
    79     7     3   am
    80    30    28   ar
    81   128   127   ar
    82   129   127   ar
    83   114   115    1
    84   143   144    1
    85   143   142    1
    86     3     2    1
    87     3     4    2
    88    10     9    2
    89   127   126    1
    90   116   115    1
    91   116   117    2
    92     2     1    1
    93   115   118    1
    94    75    74    2
    95    25    24    1
    96    25    26   ar
    97    23    22    2
    98    28    26   ar
    99   144   146   ar
   100   144   145   ar
   101   142   139    1
   102   124   123    2
   103    74    73    1
   104    80    78   ar
   105    79    78   ar
   106    24    21    1
   107    13    14    2
   108    13    12    1
   109    22    21    1
   110   126   125    1
   111   138   139    1
   112   138   132   am
   113    19    18    1
   114   118   119    1
   115   118   120    1
   116    78    77    1
   117    18    17    1
   118    11    12    1
   119   139   140    1
   120   131   132    1
   121   131   134    1
   122   131   130    1
   123   123   130   am
   124   123   122    1
   125   136   134    1
   126   125   122    1
   127    21    20    1
   128    12    15    1
   129    15    16    1
   130   132   133    2
   131   134   135    1
   132    73    72    1
   133    73    76    1
   134   122   121    1
   135    17    16    1
   136    77    76    1
   137   140   141    2
   138   147   148    1
   139   148   149    1
   140   135   137    1
   141   149   150    2
