@<TRIPOS>MOLECULE
tmp/2j45B01.pdb
 73 68 0 0 0
SMALL
GASTEIGER

@<TRIPOS>ATOM
      1  N         29.0100    8.2020   48.6080 N.3   106  LEU106     -0.1231
      2  CA        27.8800    9.1100   48.7010 C.3   106  LEU106      0.1693
      3  C         26.5590    8.3920   48.9010 C.2   106  LEU106      0.2592
      4  O         26.3810    7.2770   48.4480 O.2   106  LEU106     -0.2718
      5  CB        27.7800    9.9440   47.4440 C.3   106  LEU106      0.0284
      6  CG        28.9830   10.8280   47.1440 C.3   106  LEU106      0.0019
      7  CD1       28.7880   11.5700   45.8600 C.3   106  LEU106      0.0001
      8  CD2       29.2920   11.7630   48.2850 C.3   106  LEU106      0.0001
      9  N         25.6270    9.1070   49.5540 N.am  107  GLN107     -0.1966
     10  CA        24.1860    8.8020   49.5870 C.3   107  GLN107      0.1733
     11  C         23.7530    8.6790   48.1280 C.2   107  GLN107      0.2616
     12  O         23.9780    9.6120   47.3470 O.2   107  GLN107     -0.2715
     13  CB        23.3850    9.9350   50.3180 C.3   107  GLN107      0.0408
     14  CG        21.8700    9.7070   50.4910 C.3   107  GLN107      0.0908
     15  CD        21.1560   10.7770   51.3360 C.2   107  GLN107      0.2608
     16  OE1       19.9830   11.1170   51.0720 O.2   107  GLN107     -0.2717
     17  NE2       21.8380   11.2700   52.3750 N.am  107  GLN107     -0.0878
     18  N         23.1760    7.5390   47.7360 N.am  108  GLY108     -0.1955
     19  CA        22.7190    7.3660   46.3530 C.3   108  GLY108      0.1869
     20  C         23.6930    6.6320   45.4520 C.2   108  GLY108      0.2309
     21  O         23.3720    6.3160   44.3190 O.2   108  GLY108     -0.2863
     22  N         24.7210    3.6040   45.9990 N.3   110  GLY110     -0.1210
     23  CA        24.5450    2.1660   46.2160 C.3   110  GLY110      0.1956
     24  C         25.4100    1.6070   47.3420 C.2   110  GLY110      0.2612
     25  O         25.5280    0.3870   47.5060 O.2   110  GLY110     -0.2717
     26  N         25.9570    2.4840   48.1770 N.am  111  LYS111     -0.1965
     27  CA        26.7810    2.0580   49.2760 C.3   111  LYS111      0.1728
     28  C         26.0610    1.0670   50.2130 C.2   111  LYS111      0.2617
     29  O         26.5960   -0.0060   50.5380 O.2   111  LYS111     -0.2715
     30  CB        27.2080    3.3040   50.0670 C.3   111  LYS111      0.0311
     31  CG        27.9790    2.9990   51.2840 C.3   111  LYS111      0.0038
     32  CD        28.3940    4.2080   52.0820 C.3   111  LYS111      0.0206
     33  CE        27.3230    5.1890   52.4650 C.3   111  LYS111      0.1093
     34  NZ        26.2790    4.5650   53.3440 N.3   111  LYS111     -0.1314
     35  N         24.9020    1.4700   50.7120 N.am  112  THR112     -0.1937
     36  CA        24.2030    0.6670   51.7320 C.3   112  THR112      0.2028
     37  C         23.7390   -0.6880   51.1730 C.2   112  THR112      0.2642
     38  O         23.9260   -1.7490   51.7770 O.2   112  THR112     -0.2714
     39  CB        23.0540    1.4520   52.3270 C.3   112  THR112      0.1808
     40  OG1       23.5930    2.5750   53.0490 O.3   112  THR112     -0.2208
     41  CG2       22.2020    0.6020   53.3030 C.3   112  THR112      0.0379
     42  N         23.1280   -0.6760   49.9980 N.am  113  THR113     -0.1950
     43  CA        22.7190   -1.9190   49.3460 C.3   113  THR113      0.1897
     44  C         23.9140   -2.7980   49.0350 C.2   113  THR113      0.2313
     45  O         23.9050   -4.0390   49.1870 O.2   113  THR113     -0.2863
     46  CB        21.9610   -1.6330   48.0680 C.3   113  THR113      0.1794
     47  OG1       22.7320   -0.7710   47.2140 O.3   113  THR113     -0.2208
     48  CG2       20.6160   -0.9870   48.4310 C.3   113  THR113      0.0378
     49  N         21.6010    9.4730   61.5050 N.3   138  ARG138     -0.1245
     50  CA        20.3890    9.2760   60.6770 C.3   138  ARG138      0.1563
     51  C         19.7130    7.9420   60.9520 C.2   138  ARG138      0.2260
     52  O         20.0330    6.9310   60.3540 O.2   138  ARG138     -0.2867
     53  CB        20.7260    9.3820   59.1880 C.3   138  ARG138      0.0307
     54  CG        20.9820   10.8000   58.6960 C.3   138  ARG138      0.0489
     55  CD        20.6990   10.9310   57.1850 C.3   138  ARG138      0.2205
     56  NE        19.2850   10.7510   56.8720 N.pl3 138  ARG138     -0.0865
     57  CZ        18.7900   10.3450   55.6990 C.cat 138  ARG138      0.5346
     58  NH1       19.5830   10.0500   54.6710 N.pl3 138  ARG138      0.1354
     59  NH2       17.4760   10.2260   55.5570 N.pl3 138  ARG138      0.1354
     60  N         18.8830    5.7690   57.9730 N.3   141  ALA141     -0.1245
     61  CA        19.9730    5.1340   57.2440 C.3   141  ALA141      0.1562
     62  C         20.3080    3.7950   57.8770 C.2   141  ALA141      0.2260
     63  O         20.6420    2.8390   57.1930 O.2   141  ALA141     -0.2867
     64  CB        21.1860    6.0170   57.2140 C.3   141  ALA141      0.0290
     65  N         17.7310    1.0020   56.8840 N.3   144  GLN144     -0.1245
     66  CA        17.8460    0.4650   55.5470 C.3   144  GLN144      0.1566
     67  C         18.7360   -0.7730   55.5240 C.2   144  GLN144      0.2260
     68  O         18.4100   -1.7840   54.8950 O.2   144  GLN144     -0.2867
     69  CB        18.4140    1.5140   54.6080 C.3   144  GLN144      0.0367
     70  CG        18.4170    0.9970   53.2010 C.3   144  GLN144      0.0905
     71  CD        19.2310    1.8200   52.2380 C.2   144  GLN144      0.2608
     72  OE1       19.4510    1.4020   51.1020 O.2   144  GLN144     -0.2717
     73  NE2       19.6900    2.9820   52.6770 N.am  144  GLN144     -0.0878
@<TRIPOS>BOND
     1    21    20    2
     2    20    19    1
     3     7     6    1
     4    22    23    1
     5    23    24    1
     6    19    18    1
     7     6     5    1
     8     6     8    1
     9    47    46    1
    10    24    25    2
    11    24    26   am
    12    12    11    2
    13     5     2    1
    14    18    11   am
    15    46    48    1
    16    46    43    1
    17    11    10    1
    18    26    27    1
    19     4     3    2
    20     1     2    1
    21     2     3    1
    22     3     9   am
    23    44    45    2
    24    44    43    1
    25    27    30    1
    26    27    28    1
    27    43    42    1
    28     9    10    1
    29    10    13    1
    30    42    37   am
    31    30    31    1
    32    28    29    2
    33    28    35   am
    34    13    14    1
    35    14    15    1
    36    35    36    1
    37    16    15    2
    38    72    71    2
    39    37    36    1
    40    37    38    2
    41    31    32    1
    42    15    17   am
    43    36    39    1
    44    32    33    1
    45    71    73   am
    46    71    70    1
    47    39    40    1
    48    39    41    1
    49    33    34    1
    50    70    69    1
    51    69    66    1
    52    58    57    1
    53    68    67    2
    54    67    66    1
    55    66    65    1
    56    59    57    1
    57    57    56    2
    58    56    55    1
    59    55    54    1
    60    63    62    2
    61    64    61    1
    62    61    62    1
    63    61    60    1
    64    54    53    1
    65    53    50    1
    66    52    51    2
    67    50    51    1
    68    50    49    1
