@<TRIPOS>MOLECULE
tmp/2j46B00.pdb
 98 94 0 0 0
SMALL
GASTEIGER

@<TRIPOS>ATOM
      1  N         27.2620   -3.7980   29.3290 N.3     1  MET1       -0.1245
      2  CA        28.2970   -3.0020   30.0340 C.3     1  MET1        0.1570
      3  C         29.1020   -2.1420   29.0400 C.2     1  MET1        0.2261
      4  O         29.6090   -2.6240   28.0280 O.2     1  MET1       -0.2867
      5  CB        29.2080   -3.9190   30.8570 C.3     1  MET1        0.0387
      6  CG        30.0710   -3.1920   31.9260 C.3     1  MET1        0.0595
      7  SD        30.8340   -4.2770   33.0890 S.3     1  MET1       -0.1393
      8  CE        29.5180   -4.7320   34.1870 C.3     1  MET1        0.0692
      9  N         27.9920   -0.4260   37.8800 N.3   247  LEU247     -0.1245
     10  CA        28.9420   -0.5450   36.7690 C.3   247  LEU247      0.1561
     11  C         28.2860   -0.9500   35.4960 C.2   247  LEU247      0.2260
     12  O         28.8130   -0.6300   34.3820 O.2   247  LEU247     -0.2867
     13  CB        30.0750   -1.5190   37.1010 C.3   247  LEU247      0.0270
     14  CG        31.2710   -1.4600   36.1820 C.3   247  LEU247      0.0019
     15  CD1       31.8550   -0.0840   36.1750 C.3   247  LEU247      0.0001
     16  CD2       32.2970   -2.5000   36.6010 C.3   247  LEU247      0.0001
     17  N         33.1050   -4.9920   41.8180 N.3   270  ALA270     -0.1245
     18  CA        32.1510   -4.2450   41.0370 C.3   270  ALA270      0.1562
     19  C         30.7430   -4.5290   41.5470 C.2   270  ALA270      0.2260
     20  O         30.3920   -5.6880   41.8330 O.2   270  ALA270     -0.2867
     21  CB        32.2080   -4.6380   39.6100 C.3   270  ALA270      0.0290
     22  N         30.4420   -8.4490   42.7790 N.3   280  GLU280     -0.1231
     23  CA        31.3240   -9.5180   42.3560 C.3   280  GLU280      0.1684
     24  C         32.7520   -9.0210   42.3030 C.2   280  GLU280      0.2434
     25  O         32.9820   -7.7980   42.1620 O.2   280  GLU280     -0.2733
     26  CB        30.9560   -9.9500   40.9490 C.3   280  GLU280      0.0402
     27  CG        30.9320   -8.8420   39.8720 C.3   280  GLU280      0.1161
     28  CD        30.3930   -9.2870   38.4960 C.2   280  GLU280      0.3649
     29  OE1       30.1790   -8.4010   37.6550 O.co2 280  GLU280     -0.2457
     30  OE2       30.1830  -10.4830   38.2410 O.co2 280  GLU280     -0.2457
     31  N         33.7560   -9.9130   42.4020 N.am  281  PRO281     -0.2718
     32  CA        35.1580   -9.4940   42.1520 C.3   281  PRO281      0.1535
     33  C         35.2780   -8.8640   40.7690 C.2   281  PRO281      0.2599
     34  O         34.5350   -9.2170   39.8320 O.2   281  PRO281     -0.2715
     35  CB        35.9520  -10.7910   42.2300 C.3   281  PRO281      0.0310
     36  CG        35.0740  -11.7190   43.1060 C.3   281  PRO281      0.0237
     37  CD        33.6670  -11.3540   42.7140 C.3   281  PRO281      0.0939
     38  N         36.1830   -7.8940   40.6680 N.am  282  PHE282     -0.1960
     39  CA        36.4030   -7.1940   39.4140 C.3   282  PHE282      0.1771
     40  C         37.4890   -7.9520   38.6180 C.2   282  PHE282      0.2619
     41  O         38.5800   -8.1760   39.1280 O.2   282  PHE282     -0.2715
     42  CB        36.8460   -5.7660   39.7400 C.3   282  PHE282      0.0574
     43  CG        37.0610   -4.8900   38.5410 C.ar  282  PHE282     -0.0200
     44  CD1       36.0100   -4.1620   37.9870 C.ar  282  PHE282     -0.0042
     45  CD2       38.3210   -4.7430   37.9680 C.ar  282  PHE282     -0.0042
     46  CE1       36.2130   -3.3210   36.9060 C.ar  282  PHE282     -0.0003
     47  CE2       38.5070   -3.9000   36.8850 C.ar  282  PHE282     -0.0003
     48  CZ        37.4540   -3.2020   36.3520 C.ar  282  PHE282     -0.0000
     49  N         37.1640   -8.3050   37.3710 N.am  283  TYR283     -0.1974
     50  CA        38.0410   -9.1270   36.5310 C.3   283  TYR283      0.1639
     51  C         38.4780   -8.3680   35.2730 C.2   283  TYR283      0.2290
     52  O         37.7360   -8.3040   34.3040 O.2   283  TYR283     -0.2864
     53  CB        37.3060  -10.4030   36.1390 C.3   283  TYR283      0.0560
     54  CG        37.0140  -11.3350   37.3040 C.ar  283  TYR283     -0.0198
     55  CD1       38.0560  -11.8970   38.0450 C.ar  283  TYR283     -0.0009
     56  CD2       35.7170  -11.6240   37.6920 C.ar  283  TYR283     -0.0009
     57  CE1       37.8100  -12.7750   39.1010 C.ar  283  TYR283      0.0417
     58  CE2       35.4510  -12.5260   38.7750 C.ar  283  TYR283      0.0417
     59  CZ        36.5140  -13.0740   39.4560 C.ar  283  TYR283      0.1957
     60  OH        36.3010  -13.9480   40.5040 O.3   283  TYR283     -0.2866
     61  N         38.5610  -10.3700   31.8320 N.3   286  ARG286     -0.1231
     62  CA        37.2260  -10.6990   31.4040 C.3   286  ARG286      0.1694
     63  C         36.4280   -9.4610   30.9080 C.2   286  ARG286      0.2591
     64  O         35.6660   -9.5350   29.9390 O.2   286  ARG286     -0.2718
     65  CB        36.4900  -11.4470   32.5230 C.3   286  ARG286      0.0321
     66  CG        37.0940  -12.8290   32.8610 C.3   286  ARG286      0.0489
     67  CD        36.3730  -13.5070   34.0140 C.3   286  ARG286      0.2205
     68  NE        34.9500  -13.7670   33.7320 N.pl3 286  ARG286     -0.0865
     69  CZ        34.0850  -14.2270   34.6540 C.cat 286  ARG286      0.5346
     70  NH1       34.4730  -14.4180   35.8900 N.pl3 286  ARG286      0.1354
     71  NH2       32.8400  -14.4440   34.3300 N.pl3 286  ARG286      0.1354
     72  N         36.6260   -8.3170   31.5720 N.am  287  LEU287     -0.1980
     73  CA        35.9560   -7.1010   31.1530 C.3   287  LEU287      0.1596
     74  C         36.5250   -6.6040   29.7980 C.2   287  LEU287      0.2287
     75  O         35.7540   -6.1910   28.9220 O.2   287  LEU287     -0.2864
     76  CB        36.0820   -6.0440   32.2480 C.3   287  LEU287      0.0297
     77  CG        35.3560   -4.7220   31.9760 C.3   287  LEU287      0.0022
     78  CD1       33.9240   -4.8770   31.5540 C.3   287  LEU287      0.0001
     79  CD2       35.4570   -3.8300   33.1990 C.3   287  LEU287      0.0001
     80  N         34.7840   -8.6610   27.1940 N.3   290  ARG290     -0.1245
     81  CA        33.4130   -8.2720   27.1150 C.3   290  ARG290      0.1563
     82  C         33.2490   -6.9930   26.2690 C.2   290  ARG290      0.2260
     83  O         32.3670   -6.9100   25.4090 O.2   290  ARG290     -0.2867
     84  CB        32.8190   -8.0890   28.5350 C.3   290  ARG290      0.0307
     85  CG        31.3370   -7.8280   28.5570 C.3   290  ARG290      0.0489
     86  CD        30.7970   -7.8170   29.9590 C.3   290  ARG290      0.2205
     87  NE        29.3850   -7.4260   29.9360 N.pl3 290  ARG290     -0.0865
     88  CZ        28.5670   -7.4840   30.9780 C.cat 290  ARG290      0.5346
     89  NH1       28.9860   -7.9490   32.1440 N.pl3 290  ARG290      0.1354
     90  NH2       27.3250   -7.0830   30.8370 N.pl3 290  ARG290      0.1354
     91  N         32.6290  -14.9360   27.0620 N.3   296  ASP296     -0.1239
     92  CA        33.3190  -15.0130   28.3530 C.3   296  ASP296      0.1674
     93  C         34.0750  -16.3400   28.4180 C.2   296  ASP296      0.2266
     94  O         34.0200  -17.0490   29.3920 O.2   296  ASP296     -0.2867
     95  CB        32.3070  -14.8590   29.4950 C.3   296  ASP296      0.1410
     96  CG        32.9280  -14.3500   30.8110 C.2   296  ASP296      0.3668
     97  OD1       34.1100  -13.8520   30.8800 O.co2 296  ASP296     -0.2456
     98  OD2       32.1750  -14.4450   31.8140 O.co2 296  ASP296     -0.2456
@<TRIPOS>BOND
     1    83    82    2
     2    82    81    1
     3    91    92    1
     4    81    80    1
     5    81    84    1
     6     4     3    2
     7    92    93    1
     8    92    95    1
     9    93    94    2
    10    84    85    1
    11    85    86    1
    12    75    74    2
    13     3     2    1
    14     1     2    1
    15    95    96    1
    16    74    73    1
    17    87    86    1
    18    87    88    2
    19    64    63    2
    20     2     5    1
    21    96    97   ar
    22    96    98   ar
    23    90    88    1
    24     5     6    1
    25    63    62    1
    26    63    72   am
    27    88    89    1
    28    73    72    1
    29    73    76    1
    30    62    61    1
    31    62    65    1
    32    78    77    1
    33     6     7    1
    34    77    76    1
    35    77    79    1
    36    65    66    1
    37    66    67    1
    38     7     8    1
    39    68    67    1
    40    68    69    2
    41    52    51    2
    42    71    69    1
    43    12    11    2
    44    69    70    1
    45    51    50    1
    46    11    10    1
    47    53    50    1
    48    53    54    1
    49    15    14    1
    50    14    16    1
    51    14    13    1
    52    48    47   ar
    53    48    46   ar
    54    50    49    1
    55    10    13    1
    56    10     9    1
    57    47    45   ar
    58    46    44   ar
    59    54    56   ar
    60    54    55   ar
    61    49    40   am
    62    29    28   ar
    63    56    58   ar
    64    45    43   ar
    65    44    43   ar
    66    55    57   ar
    67    30    28   ar
    68    28    27    1
    69    43    42    1
    70    40    41    2
    71    40    39    1
    72    58    59   ar
    73    57    59   ar
    74    39    42    1
    75    39    38    1
    76    59    60    1
    77    21    18    1
    78    34    33    2
    79    27    26    1
    80    38    33   am
    81    33    32    1
    82    26    23    1
    83    18    19    1
    84    18    17    1
    85    19    20    2
    86    32    35    1
    87    32    31    1
    88    25    24    2
    89    35    36    1
    90    24    23    1
    91    24    31   am
    92    23    22    1
    93    31    37    1
    94    37    36    1
