@<TRIPOS>MOLECULE
tmp/2j47A00.pdb
 173 168 0 0 0
SMALL
GASTEIGER

@<TRIPOS>ATOM
      1  N          8.7120   -9.2240   28.4130 N.3   122  GLY122     -0.1210
      2  CA         7.7240   -9.8430   29.2950 C.3   122  GLY122      0.1956
      3  C          6.2870   -9.5530   28.8750 C.2   122  GLY122      0.2612
      4  O          5.3580   -9.7220   29.6730 O.2   122  GLY122     -0.2717
      5  N          6.1080   -9.1060   27.6330 N.am  123  PHE123     -0.1962
      6  CA         4.7770   -8.6930   27.1170 C.3   123  PHE123      0.1771
      7  C          3.9200   -9.8710   26.5580 C.2   123  PHE123      0.2619
      8  O          4.4420  -10.9900   26.3330 O.2   123  PHE123     -0.2715
      9  CB         4.9280   -7.5950   26.0440 C.3   123  PHE123      0.0574
     10  CG         5.8770   -7.9510   24.9420 C.ar  123  PHE123     -0.0200
     11  CD1        5.4790   -8.7910   23.8940 C.ar  123  PHE123     -0.0042
     12  CD2        7.1800   -7.4740   24.9460 C.ar  123  PHE123     -0.0042
     13  CE1        6.3700   -9.1500   22.8690 C.ar  123  PHE123     -0.0003
     14  CE2        8.0850   -7.8240   23.9180 C.ar  123  PHE123     -0.0003
     15  CZ         7.6840   -8.6580   22.8880 C.ar  123  PHE123     -0.0000
     16  N          2.6260   -9.6070   26.3600 N.am  124  TYR124     -0.1974
     17  CA         1.7210  -10.4510   25.5340 C.3   124  TYR124      0.1639
     18  C          1.8030  -10.0360   24.0620 C.2   124  TYR124      0.2290
     19  O          1.8950   -8.8420   23.7330 O.2   124  TYR124     -0.2864
     20  CB         0.2760  -10.2760   25.9720 C.3   124  TYR124      0.0560
     21  CG        -0.0120  -10.7940   27.3550 C.ar  124  TYR124     -0.0198
     22  CD1       -0.2940  -12.1410   27.5540 C.ar  124  TYR124     -0.0009
     23  CD2       -0.0180   -9.9360   28.4380 C.ar  124  TYR124     -0.0009
     24  CE1       -0.5700  -12.6540   28.8350 C.ar  124  TYR124      0.0417
     25  CE2       -0.3180  -10.4130   29.7540 C.ar  124  TYR124      0.0417
     26  CZ        -0.5860  -11.7610   29.9230 C.ar  124  TYR124      0.1957
     27  OH        -0.8540  -12.2430   31.1730 O.3   124  TYR124     -0.2866
     28  N          5.1340  -13.7020   27.3810 N.3   153  LYS153     -0.1245
     29  CA         3.9380  -14.4010   27.9030 C.3   153  LYS153      0.1561
     30  C          3.3910  -15.5160   26.9710 C.2   153  LYS153      0.2260
     31  O          2.8730  -16.5210   27.4440 O.2   153  LYS153     -0.2867
     32  CB         2.7860  -13.4240   28.1670 C.3   153  LYS153      0.0271
     33  CG         2.8880  -12.6420   29.4850 C.3   153  LYS153      0.0035
     34  CD         2.7290  -13.5820   30.6830 C.3   153  LYS153      0.0206
     35  CE         2.7070  -12.7690   31.9930 C.3   153  LYS153      0.1093
     36  NZ         3.9190  -11.9620   32.2210 N.3   153  LYS153     -0.1314
     37  N          2.8670  -13.7700   38.2320 N.3   229  ASP229     -0.1225
     38  CA         1.9310  -12.6890   37.8910 C.3   229  ASP229      0.1805
     39  C          0.7300  -13.2110   37.0980 C.2   229  ASP229      0.2597
     40  O          0.8580  -14.1630   36.3030 O.2   229  ASP229     -0.2718
     41  CB         2.6550  -11.5890   37.0740 C.3   229  ASP229      0.1424
     42  CG         3.3570  -12.1260   35.8430 C.2   229  ASP229      0.3668
     43  OD1        3.9150  -13.2500   35.8840 O.co2 229  ASP229     -0.2456
     44  OD2        3.3430  -11.4180   34.8080 O.co2 229  ASP229     -0.2456
     45  N         -0.4350  -12.5750   37.2900 N.am  230  ASP230     -0.1974
     46  CA        -1.6090  -12.8610   36.4430 C.3   230  ASP230      0.1709
     47  C         -2.0780  -14.3130   36.5150 C.2   230  ASP230      0.2293
     48  O         -2.3850  -14.9230   35.4950 O.2   230  ASP230     -0.2864
     49  CB        -1.3560  -12.4470   35.0180 C.3   230  ASP230      0.1436
     50  CG        -1.0740  -10.9500   34.9110 C.2   230  ASP230      0.3671
     51  OD1       -1.4890  -10.1920   35.8090 O.co2 230  ASP230     -0.2456
     52  OD2       -0.4260  -10.5510   33.9530 O.co2 230  ASP230     -0.2456
     53  N          8.7540  -12.6800   40.2640 N.3   265  CYS265     -0.1235
     54  CA         7.6700  -11.7040   40.1360 C.3   265  CYS265      0.1677
     55  C          6.5000  -12.1590   40.9660 C.2   265  CYS265      0.2270
     56  O          6.0050  -13.2470   40.7560 O.2   265  CYS265     -0.2867
     57  CB         7.2180  -11.5340   38.6850 C.3   265  CYS265      0.0956
     58  SG         6.0100  -10.1670   38.4910 S.3   265  CYS265     -0.0801
     59  N          1.8180   -7.4980   42.3430 N.3   269  TYR269     -0.1241
     60  CA         3.0480   -6.8570   41.8590 C.3   269  TYR269      0.1605
     61  C          2.8330   -5.3710   41.7260 C.2   269  TYR269      0.2264
     62  O          3.6890   -4.6650   41.1760 O.2   269  TYR269     -0.2867
     63  CB         3.5220   -7.4380   40.4950 C.3   269  TYR269      0.0534
     64  CG         2.3890   -7.4860   39.4640 C.ar  269  TYR269     -0.0201
     65  CD1        2.0450   -6.3530   38.7040 C.ar  269  TYR269     -0.0009
     66  CD2        1.6170   -8.6280   39.3110 C.ar  269  TYR269     -0.0009
     67  CE1        0.9410   -6.3760   37.7660 C.ar  269  TYR269      0.0417
     68  CE2        0.5290   -8.6730   38.3930 C.ar  269  TYR269      0.0417
     69  CZ         0.2110   -7.5610   37.6370 C.ar  269  TYR269      0.1957
     70  OH        -0.8590   -7.6620   36.7630 O.3   269  TYR269     -0.2866
     71  N         -3.4120   -3.4690   43.2230 N.3   273  TRP273     -0.1241
     72  CA        -3.9730   -4.8230   43.1940 C.3   273  TRP273      0.1605
     73  C         -3.4960   -5.7190   44.3860 C.2   273  TRP273      0.2264
     74  O         -3.5460   -6.9460   44.3340 O.2   273  TRP273     -0.2867
     75  CB        -3.7590   -5.4810   41.8130 C.3   273  TRP273      0.0550
     76  CG        -4.7120   -4.9180   40.7790 C.ar  273  TRP273      0.0003
     77  CD1       -4.5870   -3.7250   40.1060 C.ar  273  TRP273      0.0946
     78  CD2       -5.9560   -5.4950   40.3410 C.ar  273  TRP273      0.0152
     79  NE1       -5.6630   -3.5450   39.2560 N.ar  273  TRP273     -0.2442
     80  CE2       -6.5230   -4.6040   39.3950 C.ar  273  TRP273      0.0810
     81  CE3       -6.6310   -6.6810   40.6340 C.ar  273  TRP273      0.0012
     82  CZ2       -7.7430   -4.8610   38.7560 C.ar  273  TRP273      0.0191
     83  CZ3       -7.8470   -6.9340   39.9880 C.ar  273  TRP273      0.0001
     84  CH2       -8.3740   -6.0280   39.0580 C.ar  273  TRP273      0.0015
     85  N          5.7500   -3.3680   39.9020 N.3   297  THR297     -0.1218
     86  CA         5.4350   -2.4560   38.7630 C.3   297  THR297      0.1862
     87  C          5.0610   -1.0350   39.2290 C.2   297  THR297      0.2287
     88  O          4.8380   -0.1490   38.3960 O.2   297  THR297     -0.2866
     89  CB         4.3520   -3.0140   37.8010 C.3   297  THR297      0.1770
     90  OG1        3.0480   -3.0010   38.4310 O.3   297  THR297     -0.2211
     91  CG2        4.6870   -4.4330   37.3660 C.3   297  THR297      0.0375
     92  N         -0.7920   -1.1660   37.9620 N.3   301  VAL301     -0.1231
     93  CA        -0.3180   -2.0960   36.9230 C.3   301  VAL301      0.1692
     94  C          0.6630   -1.3790   36.0130 C.2   301  VAL301      0.2591
     95  O          1.7900   -1.8420   35.7890 O.2   301  VAL301     -0.2718
     96  CB        -1.4890   -2.7150   36.0770 C.3   301  VAL301      0.0266
     97  CG1       -0.8940   -3.5710   34.9290 C.3   301  VAL301      0.0020
     98  CG2       -2.4130   -3.5590   36.9480 C.3   301  VAL301      0.0020
     99  N          0.2410   -0.2240   35.4940 N.am  302  ILE302     -0.1980
    100  CA         1.1240    0.6180   34.6940 C.3   302  ILE302      0.1595
    101  C          1.3590    1.9220   35.4990 C.2   302  ILE302      0.2287
    102  O          0.4200    2.6710   35.7550 O.2   302  ILE302     -0.2864
    103  CB         0.4980    0.9920   33.3510 C.3   302  ILE302      0.0276
    104  CG1       -0.2160   -0.1990   32.6810 C.3   302  ILE302      0.0022
    105  CG2        1.5230    1.6850   32.4620 C.3   302  ILE302      0.0022
    106  CD1        0.6960   -1.4080   32.1920 C.3   302  ILE302      0.0001
    107  N          9.8370   -3.6010   37.6970 N.3   324  TRP324     -0.1241
    108  CA         9.3850   -4.0020   36.3610 C.3   324  TRP324      0.1605
    109  C          8.6070   -2.7820   35.8710 C.2   324  TRP324      0.2264
    110  O          7.4630   -2.5650   36.3000 O.2   324  TRP324     -0.2867
    111  CB         8.4570   -5.2420   36.5250 C.3   324  TRP324      0.0550
    112  CG         7.7680   -5.7650   35.3030 C.ar  324  TRP324      0.0003
    113  CD1        7.0930   -5.0460   34.3370 C.ar  324  TRP324      0.0946
    114  CD2        7.6360   -7.1450   34.9390 C.ar  324  TRP324      0.0152
    115  NE1        6.5700   -5.8980   33.3920 N.ar  324  TRP324     -0.2442
    116  CE2        6.8770   -7.1950   33.7490 C.ar  324  TRP324      0.0810
    117  CE3        8.0690   -8.3440   35.5200 C.ar  324  TRP324      0.0012
    118  CZ2        6.5790   -8.4060   33.0950 C.ar  324  TRP324      0.0191
    119  CZ3        7.7390   -9.5560   34.8880 C.ar  324  TRP324      0.0001
    120  CH2        7.0130   -9.5670   33.6760 C.ar  324  TRP324      0.0015
    121  N          6.3550   -0.9220   33.3300 N.3   326  ASN326     -0.1240
    122  CA         5.4720   -1.2430   32.2090 C.3   326  ASN326      0.1653
    123  C          5.3220   -0.1180   31.1960 C.2   326  ASN326      0.2266
    124  O          4.2530    0.3820   30.9690 O.2   326  ASN326     -0.2867
    125  CB         4.1050   -1.7440   32.7310 C.3   326  ASN326      0.1155
    126  CG         4.1230   -3.2580   32.9870 C.2   326  ASN326      0.2627
    127  OD1        4.7260   -4.0230   32.2040 O.2   326  ASN326     -0.2716
    128  ND2        3.4590   -3.6940   34.0620 N.am  326  ASN326     -0.0877
    129  N          5.6500   -0.8930   26.9000 N.3   329  VAL329     -0.1245
    130  CA         4.7610   -2.0160   26.5160 C.3   329  VAL329      0.1561
    131  C          3.4290   -1.5080   25.9980 C.2   329  VAL329      0.2260
    132  O          2.7990   -0.6500   26.6280 O.2   329  VAL329     -0.2867
    133  CB         4.5610   -3.0600   27.6620 C.3   329  VAL329      0.0252
    134  CG1        4.0650   -2.4050   28.9490 C.3   329  VAL329      0.0019
    135  CG2        3.6390   -4.1650   27.2080 C.3   329  VAL329      0.0019
    136  N          0.9400   -3.7320   24.7480 N.3   331  ASP331     -0.1225
    137  CA         0.1850   -4.9500   24.4730 C.3   331  ASP331      0.1805
    138  C         -1.3050   -4.8320   24.8630 C.2   331  ASP331      0.2597
    139  O         -2.1160   -5.7120   24.5330 O.2   331  ASP331     -0.2718
    140  CB         0.9000   -6.1970   25.0710 C.3   331  ASP331      0.1424
    141  CG         0.9150   -6.2030   26.6190 C.2   331  ASP331      0.3668
    142  OD1        0.2260   -5.3780   27.2210 O.co2 331  ASP331     -0.2456
    143  OD2        1.6290   -7.0340   27.2300 O.co2 331  ASP331     -0.2456
    144  N         -1.6790   -3.7170   25.4870 N.am  332  TYR332     -0.1976
    145  CA        -3.0810   -3.4370   25.8030 C.3   332  TYR332      0.1639
    146  C         -3.5810   -2.2100   25.0270 C.2   332  TYR332      0.2290
    147  O         -4.7180   -1.7940   25.1850 O.2   332  TYR332     -0.2864
    148  CB        -3.2210   -3.1880   27.3000 C.3   332  TYR332      0.0560
    149  CG        -2.3930   -2.0580   27.8140 C.ar  332  TYR332     -0.0198
    150  CD1       -1.0900   -2.2630   28.2770 C.ar  332  TYR332     -0.0009
    151  CD2       -2.9370   -0.7800   27.9190 C.ar  332  TYR332     -0.0009
    152  CE1       -0.3470   -1.2170   28.7530 C.ar  332  TYR332      0.0417
    153  CE2       -2.2040    0.2710   28.4390 C.ar  332  TYR332      0.0417
    154  CZ        -0.9160    0.0520   28.8510 C.ar  332  TYR332      0.1957
    155  OH        -0.1830    1.1190   29.3760 O.3   332  TYR332     -0.2866
    156  N          9.6270   -3.1680   30.3930 N.3   359  ASN359     -0.1240
    157  CA         8.8260   -4.0790   29.5660 C.3   359  ASN359      0.1653
    158  C          8.4840   -3.3240   28.2610 C.2   359  ASN359      0.2266
    159  O          7.7790   -2.3100   28.2820 O.2   359  ASN359     -0.2867
    160  CB         7.5580   -4.5130   30.3360 C.3   359  ASN359      0.1155
    161  CG         6.8010   -5.6440   29.6550 C.2   359  ASN359      0.2627
    162  OD1        7.3430   -6.3860   28.8220 O.2   359  ASN359     -0.2716
    163  ND2        5.5450   -5.7920   30.0160 N.am  359  ASN359     -0.0877
    164  N         -6.0260    0.8370   31.9240 N.3   420  HIS420     -0.1241
    165  CA        -5.0410    1.0770   32.9930 C.3   420  HIS420      0.1621
    166  C         -4.9170    2.5350   33.4490 C.2   420  HIS420      0.2264
    167  O         -4.1270    2.8180   34.3530 O.2   420  HIS420     -0.2867
    168  CB        -3.6490    0.5320   32.6080 C.3   420  HIS420      0.0745
    169  CG        -3.6330   -0.9460   32.3760 C.ar  420  HIS420      0.0817
    170  ND1       -4.0860   -1.8470   33.3220 N.ar  420  HIS420     -0.2268
    171  CD2       -3.2400   -1.6820   31.3110 C.ar  420  HIS420      0.1154
    172  CE1       -3.9700   -3.0710   32.8420 C.ar  420  HIS420      0.1986
    173  NE2       -3.4510   -2.9970   31.6280 N.ar  420  HIS420     -0.2212
@<TRIPOS>BOND
     1    13    15   ar
     2    13    11   ar
     3    15    14   ar
     4    19    18    2
     5    11    10   ar
     6    14    12   ar
     7    18    17    1
     8   137   136    1
     9   137   138    1
    10   137   140    1
    11   139   138    2
    12   138   144   am
    13    10    12   ar
    14    10     9    1
    15   146   147    2
    16   146   145    1
    17   140   141    1
    18   144   145    1
    19    17    20    1
    20    17    16    1
    21   145   148    1
    22    20    21    1
    23   131   130    1
    24   131   132    2
    25     9     6    1
    26     8     7    2
    27    16     7   am
    28   130   129    1
    29   130   133    1
    30     7     6    1
    31   141   142   ar
    32   141   143   ar
    33    30    31    2
    34    30    29    1
    35     6     5    1
    36   135   133    1
    37   148   149    1
    38    21    22   ar
    39    21    23   ar
    40    28    29    1
    41    22    24   ar
    42     5     3   am
    43   133   134    1
    44   149   151   ar
    45   149   150   ar
    46    29    32    1
    47   151   153   ar
    48    32    33    1
    49   158   159    2
    50   158   157    1
    51   150   152   ar
    52     1     2    1
    53    23    25   ar
    54   153   154   ar
    55   152   154   ar
    56   162   161    2
    57    24    26   ar
    58   154   155    1
    59     3     2    1
    60     3     4    2
    61    33    34    1
    62   157   160    1
    63   157   156    1
    64   161   163   am
    65   161   160    1
    66    25    26   ar
    67    26    27    1
    68    34    35    1
    69   124   123    2
    70   123   122    1
    71   171   173   ar
    72   171   169   ar
    73   173   172   ar
    74   164   165    1
    75    35    36    1
    76   106   104    1
    77   127   126    2
    78   122   125    1
    79   122   121    1
    80   169   168    1
    81   169   170   ar
    82   105   103    1
    83   168   165    1
    84   104   103    1
    85   125   126    1
    86   172   170   ar
    87   126   128   am
    88   165   166    1
    89   118   120   ar
    90   118   116   ar
    91   103   100    1
    92   115   116   ar
    93   115   113   ar
    94   166   167    2
    95   120   119   ar
    96   116   114   ar
    97    52    50   ar
    98   113   112   ar
    99   100    99    1
   100   100   101    1
   101    44    42   ar
   102   119   117   ar
   103    50    49    1
   104    50    51   ar
   105    97    96    1
   106   114   112   ar
   107   114   117   ar
   108    49    46    1
   109   112   111    1
   110    99    94   am
   111    48    47    2
   112   101   102    2
   113    95    94    2
   114    42    43   ar
   115    42    41    1
   116   109   110    2
   117   109   108    1
   118    94    93    1
   119    96    93    1
   120    96    98    1
   121    40    39    2
   122   108   111    1
   123   108   107    1
   124    46    47    1
   125    46    45    1
   126    70    69    1
   127    93    92    1
   128    41    38    1
   129    39    45   am
   130    39    38    1
   131    91    89    1
   132    69    67   ar
   133    69    68   ar
   134    67    65   ar
   135    89    90    1
   136    89    86    1
   137    38    37    1
   138    68    66   ar
   139    88    87    2
   140    58    57    1
   141    57    54    1
   142    65    64   ar
   143    82    84   ar
   144    82    80   ar
   145    86    87    1
   146    86    85    1
   147    84    83   ar
   148    79    80   ar
   149    79    77   ar
   150    66    64   ar
   151    80    78   ar
   152    64    63    1
   153    83    81   ar
   154    77    76   ar
   155    54    53    1
   156    54    55    1
   157    78    81   ar
   158    78    76   ar
   159    63    60    1
   160    56    55    2
   161    76    75    1
   162    62    61    2
   163    61    60    1
   164    75    72    1
   165    60    59    1
   166    72    71    1
   167    72    73    1
   168    74    73    2
