@<TRIPOS>MOLECULE
tmp/2j4aA00.pdb
 185 173 0 0 0
SMALL
GASTEIGER

@<TRIPOS>ATOM
      1  N         -4.3990   25.1370   37.2460 N.3    59  PHE59      -0.1241
      2  CA        -3.4370   25.9760   36.5390 C.3    59  PHE59       0.1605
      3  C         -2.3470   26.4920   37.4790 C.2    59  PHE59       0.2264
      4  O         -1.1710   26.5270   37.1300 O.2    59  PHE59      -0.2867
      5  CB        -4.1460   27.1760   35.9160 C.3    59  PHE59       0.0534
      6  CG        -3.2650   28.0040   35.0420 C.ar   59  PHE59      -0.0203
      7  CD1       -2.8810   27.5420   33.7870 C.ar   59  PHE59      -0.0042
      8  CD2       -2.8140   29.2480   35.4660 C.ar   59  PHE59      -0.0042
      9  CE1       -2.0590   28.3120   32.9630 C.ar   59  PHE59      -0.0003
     10  CE2       -1.9930   30.0240   34.6480 C.ar   59  PHE59      -0.0003
     11  CZ        -1.6150   29.5600   33.3980 C.ar   59  PHE59      -0.0000
     12  N          0.2600   23.8830   38.3130 N.3    62  PHE62      -0.1227
     13  CA         1.1080   23.5950   37.1630 C.3    62  PHE62       0.1736
     14  C          2.1670   24.6490   36.8770 C.2    62  PHE62       0.2596
     15  O          3.2970   24.3150   36.5420 O.2    62  PHE62      -0.2718
     16  CB         0.2450   23.3850   35.9140 C.3    62  PHE62       0.0547
     17  CG        -0.5730   22.1250   35.9580 C.ar   62  PHE62      -0.0202
     18  CD1       -1.9170   22.1380   35.6140 C.ar   62  PHE62      -0.0042
     19  CD2        0.0000   20.9240   36.3730 C.ar   62  PHE62      -0.0042
     20  CE1       -2.6830   20.9790   35.6850 C.ar   62  PHE62      -0.0003
     21  CE2       -0.7660   19.7530   36.4460 C.ar   62  PHE62      -0.0003
     22  CZ        -2.1030   19.7830   36.1040 C.ar   62  PHE62      -0.0000
     23  N          1.8120   25.9210   37.0020 N.am   63  THR63      -0.1953
     24  CA         2.7820   26.9650   36.7260 C.3    63  THR63       0.1897
     25  C          3.8150   27.0190   37.8330 C.2    63  THR63       0.2313
     26  O          4.9070   27.5540   37.6510 O.2    63  THR63      -0.2863
     27  CB         2.1100   28.3430   36.5670 C.3    63  THR63       0.1794
     28  OG1        1.2940   28.6180   37.7130 O.3    63  THR63      -0.2208
     29  CG2        1.2500   28.3570   35.3090 C.3    63  THR63       0.0378
     30  N          5.1560   24.2310   39.3450 N.3    65  ILE65      -0.1231
     31  CA         6.1610   23.2140   39.0640 C.3    65  ILE65       0.1692
     32  C          6.8180   23.3680   37.6900 C.2    65  ILE65       0.2591
     33  O          7.9050   22.8530   37.4640 O.2    65  ILE65      -0.2718
     34  CB         5.5540   21.8070   39.1380 C.3    65  ILE65       0.0266
     35  CG1        4.4890   21.6510   38.0580 C.3    65  ILE65       0.0019
     36  CG2        4.9230   21.5820   40.5090 C.3    65  ILE65       0.0020
     37  CD1        3.8600   20.2710   38.0240 C.3    65  ILE65       0.0001
     38  N          6.1770   24.0830   36.7740 N.am   66  ILE66      -0.1980
     39  CA         6.7530   24.2200   35.4450 C.3    66  ILE66       0.1595
     40  C          8.0680   25.0050   35.3470 C.2    66  ILE66       0.2287
     41  O          8.8880   24.7070   34.4830 O.2    66  ILE66      -0.2864
     42  CB         5.7450   24.8370   34.4450 C.3    66  ILE66       0.0276
     43  CG1        6.1740   24.4810   33.0160 C.3    66  ILE66       0.0022
     44  CG2        5.6780   26.3500   34.6260 C.3    66  ILE66       0.0022
     45  CD1        5.2240   24.9490   31.9290 C.3    66  ILE66       0.0001
     46  N         11.1430   22.9350   35.8250 N.3    69  ALA69      -0.1245
     47  CA        11.1940   21.9720   34.7250 C.3    69  ALA69       0.1562
     48  C         11.7930   22.6430   33.4950 C.2    69  ALA69       0.2260
     49  O         12.5840   22.0440   32.7630 O.2    69  ALA69      -0.2867
     50  CB         9.7870   21.4480   34.4060 C.3    69  ALA69       0.0290
     51  N         15.4760   22.9520   33.7830 N.3    72  ARG72      -0.1245
     52  CA        16.2210   21.7200   33.5420 C.3    72  ARG72       0.1563
     53  C         16.4310   21.4830   32.0460 C.2    72  ARG72       0.2260
     54  O         17.4410   20.8980   31.6430 O.2    72  ARG72      -0.2867
     55  CB        15.5360   20.5250   34.2170 C.3    72  ARG72       0.0307
     56  CG        15.7390   20.5390   35.7360 C.3    72  ARG72       0.0489
     57  CD        15.2140   19.2830   36.4380 C.3    72  ARG72       0.2205
     58  NE        13.7590   19.2300   36.4040 N.pl3  72  ARG72      -0.0865
     59  CZ        13.0490   18.3930   35.6540 C.cat  72  ARG72       0.5346
     60  NH1       11.7230   18.4350   35.6930 N.pl3  72  ARG72       0.1354
     61  NH2       13.6640   17.5080   34.8800 N.pl3  72  ARG72       0.1354
     62  N          8.7550   22.8400   25.3420 N.3   100  MET100     -0.1245
     63  CA         7.5690   22.0310   25.5990 C.3   100  MET100      0.1570
     64  C          7.7170   20.6220   25.0340 C.2   100  MET100      0.2261
     65  O          7.2210   19.6690   25.6170 O.2   100  MET100     -0.2867
     66  CB         6.3210   22.6880   25.0010 C.3   100  MET100      0.0387
     67  CG         5.0560   21.8520   25.1610 C.3   100  MET100      0.0595
     68  SD         4.6060   21.5570   26.8950 S.3   100  MET100     -0.1393
     69  CE         2.9700   20.8470   26.6830 C.3   100  MET100      0.0692
     70  N          9.8840   18.7010   27.5740 N.3   103  MET103     -0.1230
     71  CA         9.1760   18.4800   28.8340 C.3   103  MET103      0.1702
     72  C          8.0530   17.4520   28.6620 C.2   103  MET103      0.2593
     73  O          7.8050   16.6440   29.5560 O.2   103  MET103     -0.2718
     74  CB         8.5840   19.7800   29.3760 C.3   103  MET103      0.0401
     75  CG         9.6270   20.7940   29.8460 C.3   103  MET103      0.0596
     76  SD         8.9060   22.1390   30.8300 S.3   103  MET103     -0.1393
     77  CE         7.9970   23.0140   29.5550 C.3   103  MET103      0.0692
     78  N          7.3760   17.4910   27.5180 N.am  104  SER104     -0.1952
     79  CA         6.2940   16.5570   27.2440 C.3   104  SER104      0.1924
     80  C          6.8540   15.1310   27.1070 C.2   104  SER104      0.2314
     81  O          6.2320   14.1710   27.5610 O.2   104  SER104     -0.2863
     82  CB         5.5470   16.9740   25.9720 C.3   104  SER104      0.2116
     83  OG         4.9190   18.2420   26.1390 O.3   104  SER104     -0.2180
     84  N          9.6110   14.0100   28.5760 N.3   106  ARG106     -0.1231
     85  CA        10.0170   13.6310   29.9290 C.3   106  ARG106      0.1694
     86  C          8.8330   13.1960   30.7850 C.2   106  ARG106      0.2591
     87  O          8.9700   12.3320   31.6490 O.2   106  ARG106     -0.2718
     88  CB        10.7750   14.7830   30.5930 C.3   106  ARG106      0.0321
     89  CG        12.0910   15.1080   29.8820 C.3   106  ARG106      0.0489
     90  CD        12.9080   16.1750   30.5990 C.3   106  ARG106      0.2205
     91  NE        14.3400   15.9860   30.3590 N.pl3 106  ARG106     -0.0865
     92  CZ        15.2990   16.6160   31.0290 C.cat 106  ARG106      0.5346
     93  NH1       16.5730   16.3710   30.7540 N.pl3 106  ARG106      0.1354
     94  NH2       14.9810   17.5060   31.9660 N.pl3 106  ARG106      0.1354
     95  N          7.6660   13.7840   30.5400 N.am  107  ALA107     -0.1980
     96  CA         6.4760   13.3980   31.2870 C.3   107  ALA107      0.1597
     97  C          5.8810   12.1020   30.6970 C.2   107  ALA107      0.2287
     98  O          5.4290   11.2080   31.4350 O.2   107  ALA107     -0.2864
     99  CB         5.4490   14.5060   31.2250 C.3   107  ALA107      0.0319
    100  N          7.1690    8.7990   31.6820 N.3   110  ARG110     -0.1245
    101  CA         6.8220    8.4740   33.0620 C.3   110  ARG110      0.1563
    102  C          5.3240    8.2150   33.2020 C.2   110  ARG110      0.2260
    103  O          4.7280    8.4810   34.2490 O.2   110  ARG110     -0.2867
    104  CB         7.2270    9.5910   34.0160 C.3   110  ARG110      0.0307
    105  CG         8.7240    9.8380   34.1190 C.3   110  ARG110      0.0489
    106  CD         9.0130   10.4780   35.4580 C.3   110  ARG110      0.2205
    107  NE        10.2880   11.1860   35.5290 N.pl3 110  ARG110     -0.0865
    108  CZ        10.4360   12.4860   35.2730 C.cat 110  ARG110      0.5346
    109  NH1        9.3850   13.2330   34.9160 N.pl3 110  ARG110      0.1354
    110  NH2       11.6300   13.0480   35.4130 N.pl3 110  ARG110      0.1354
    111  N          5.0650   14.4470   36.5460 N.3   120  LEU120     -0.1231
    112  CA         5.7860   15.6530   36.1550 C.3   120  LEU120      0.1693
    113  C          6.9800   15.8950   37.0760 C.2   120  LEU120      0.2592
    114  O          6.8510   15.8450   38.2980 O.2   120  LEU120     -0.2718
    115  CB         4.8430   16.8630   36.1990 C.3   120  LEU120      0.0284
    116  CG         3.5200   16.7340   35.4340 C.3   120  LEU120      0.0019
    117  CD1        2.8030   18.0710   35.4560 C.3   120  LEU120      0.0001
    118  CD2        3.7770   16.2900   33.9940 C.3   120  LEU120      0.0001
    119  N          8.1400   16.1470   36.4730 N.am  121  SER121     -0.1952
    120  CA         9.3700   16.4000   37.2130 C.3   121  SER121      0.1924
    121  C          9.6470   15.2810   38.2070 C.2   121  SER121      0.2314
    122  O         10.3990   15.4570   39.1600 O.2   121  SER121     -0.2863
    123  CB         9.2730   17.7410   37.9460 C.3   121  SER121      0.2116
    124  OG         8.9640   18.7810   37.0320 O.3   121  SER121     -0.2180
    125  N         -4.6310   17.6130   33.9350 N.3   131  LEU131     -0.1245
    126  CA        -3.7580   18.3530   33.0410 C.3   131  LEU131      0.1561
    127  C         -4.5730   19.0100   31.9190 C.2   131  LEU131      0.2260
    128  O         -4.2500   20.1120   31.4710 O.2   131  LEU131     -0.2867
    129  CB        -2.6900   17.4160   32.4620 C.3   131  LEU131      0.0270
    130  CG        -1.5810   18.0740   31.6410 C.3   131  LEU131      0.0019
    131  CD1       -0.8710   19.1420   32.5010 C.3   131  LEU131      0.0001
    132  CD2       -0.5900   16.9960   31.1590 C.3   131  LEU131      0.0001
    133  N         -6.6710   21.8100   33.5830 N.3   134  GLY134     -0.1210
    134  CA        -5.7130   22.7440   34.1400 C.3   134  GLY134      0.1956
    135  C         -5.0760   23.6970   33.1510 C.2   134  GLY134      0.2612
    136  O         -4.2830   24.5560   33.5450 O.2   134  GLY134     -0.2717
    137  N         -5.3950   23.5510   31.8680 N.am  135  GLY135     -0.1942
    138  CA        -4.8290   24.4600   30.8900 C.3   135  GLY135      0.2014
    139  C         -4.3640   23.9100   29.5570 C.2   135  GLY135      0.2638
    140  O         -4.3450   24.6410   28.5680 O.2   135  GLY135     -0.2714
    141  N         -3.9910   22.6370   29.4960 N.am  136  LEU136     -0.1977
    142  CA        -3.5050   22.1110   28.2260 C.3   136  LEU136      0.1596
    143  C         -4.5820   21.7750   27.2080 C.2   136  LEU136      0.2287
    144  O         -4.3120   21.7900   26.0140 O.2   136  LEU136     -0.2864
    145  CB        -2.5910   20.8950   28.4450 C.3   136  LEU136      0.0297
    146  CG        -1.1910   21.1960   29.0020 C.3   136  LEU136      0.0022
    147  CD1       -0.2740   19.9980   28.7510 C.3   136  LEU136      0.0001
    148  CD2       -0.6110   22.4330   28.3210 C.3   136  LEU136      0.0001
    149  N         -0.3370   14.2170   24.8350 N.3   143  ILE143     -0.1245
    150  CA         0.7620   13.7550   25.6720 C.3   143  ILE143      0.1561
    151  C          0.4710   12.3940   26.3230 C.2   143  ILE143      0.2260
    152  O          1.3550   11.5350   26.3880 O.2   143  ILE143     -0.2867
    153  CB         1.0890   14.7800   26.7750 C.3   143  ILE143      0.0252
    154  CG1        1.3890   16.1450   26.1430 C.3   143  ILE143      0.0019
    155  CG2        2.3000   14.3090   27.5770 C.3   143  ILE143      0.0019
    156  CD1        1.5860   17.2530   27.1520 C.3   143  ILE143      0.0001
    157  N          1.0010   23.5810   21.6000 N.3   225  HIS225     -0.1241
    158  CA         1.1050   24.2190   22.9090 C.3   225  HIS225      0.1621
    159  C          1.2310   25.7340   22.7770 C.2   225  HIS225      0.2264
    160  O          0.6850   26.4870   23.5810 O.2   225  HIS225     -0.2867
    161  CB         2.3100   23.6750   23.6790 C.3   225  HIS225      0.0745
    162  CG         2.6230   24.4560   24.9140 C.ar  225  HIS225      0.0817
    163  ND1        3.5000   25.5180   24.9160 N.ar  225  HIS225     -0.2268
    164  CD2        2.0940   24.4010   26.1590 C.ar  225  HIS225      0.1154
    165  CE1        3.4930   26.0870   26.1070 C.ar  225  HIS225      0.1986
    166  NE2        2.6470   25.4290   26.8780 N.ar  225  HIS225     -0.2212
    167  N         -4.3970   30.5270   27.2460 N.3   232  MET232     -0.1245
    168  CA        -4.2170   30.6270   28.6860 C.3   232  MET232      0.1570
    169  C         -4.1040   32.0810   29.1200 C.2   232  MET232      0.2261
    170  O         -4.6690   32.4810   30.1380 O.2   232  MET232     -0.2867
    171  CB        -2.9590   29.8830   29.1170 C.3   232  MET232      0.0387
    172  CG        -3.0660   28.3760   29.0890 C.3   232  MET232      0.0595
    173  SD        -1.4830   27.6710   29.5820 S.3   232  MET232     -0.1393
    174  CE        -1.0950   26.6250   28.1670 C.3   232  MET232      0.0692
    175  N          8.0810   31.3590   32.6630 N.3   245  PHE245     -0.1241
    176  CA         7.0160   30.7920   31.8380 C.3   245  PHE245      0.1605
    177  C          6.7130   31.7320   30.6590 C.2   245  PHE245      0.2264
    178  O          6.5650   31.2910   29.5150 O.2   245  PHE245     -0.2867
    179  CB         5.7700   30.5760   32.7140 C.3   245  PHE245      0.0534
    180  CG         4.6480   29.8300   32.0370 C.ar  245  PHE245     -0.0203
    181  CD1        4.8960   28.6710   31.3080 C.ar  245  PHE245     -0.0042
    182  CD2        3.3310   30.2510   32.1940 C.ar  245  PHE245     -0.0042
    183  CE1        3.8450   27.9370   30.7460 C.ar  245  PHE245     -0.0003
    184  CE2        2.2680   29.5290   31.6410 C.ar  245  PHE245     -0.0003
    185  CZ         2.5280   28.3650   30.9130 C.ar  245  PHE245     -0.0000
@<TRIPOS>BOND
     1   157   158    1
     2   159   158    1
     3   159   160    2
     4   158   161    1
     5   161   162    1
     6   149   150    1
     7   162   163   ar
     8   162   164   ar
     9   163   165   ar
    10    66    67    1
    11    66    63    1
    12    64    63    1
    13    64    65    2
    14    67    68    1
    15    62    63    1
    16   150   151    1
    17   150   153    1
    18    82    83    1
    19    82    79    1
    20   144   143    2
    21   165   166   ar
    22   154   153    1
    23   154   156    1
    24   164   166   ar
    25   151   152    2
    26    69    68    1
    27   153   155    1
    28    80    79    1
    29    80    81    2
    30   143   142    1
    31    79    78    1
    32   167   168    1
    33    78    72   am
    34    70    71    1
    35   174   173    1
    36   142   145    1
    37   142   141    1
    38   148   146    1
    39   145   146    1
    40   140   139    2
    41    84    85    1
    42    72    71    1
    43    72    73    2
    44   168   171    1
    45   168   169    1
    46   147   146    1
    47    71    74    1
    48   172   171    1
    49   172   173    1
    50   169   170    2
    51    74    75    1
    52   141   139   am
    53   178   177    2
    54    77    76    1
    55   139   138    1
    56    75    76    1
    57    89    88    1
    58    89    90    1
    59    85    88    1
    60    85    86    1
    61    91    90    1
    62    91    92    2
    63    95    86   am
    64    95    96    1
    65   177   176    1
    66    97    96    1
    67    97    98    2
    68   183   185   ar
    69   183   181   ar
    70    93    92    1
    71    86    87    2
    72   138   137    1
    73   185   184   ar
    74    92    94    1
    75   132   130    1
    76    99    96    1
    77   181   180   ar
    78   128   127    2
    79   130   129    1
    80   130   131    1
    81   184   182   ar
    82    54    53    2
    83   100   101    1
    84   176   175    1
    85   176   179    1
    86   137   135   am
    87   127   126    1
    88    45    43    1
    89   180   182   ar
    90   180   179    1
    91    53    52    1
    92   129   126    1
    93    49    48    2
    94     9    11   ar
    95     9     7   ar
    96    43    42    1
    97   126   125    1
    98   101   102    1
    99   101   104    1
   100   135   136    2
   101   135   134    1
   102   102   103    2
   103    11    10   ar
   104    48    47    1
   105    52    51    1
   106    52    55    1
   107   133   134    1
   108     7     6   ar
   109   118   116    1
   110   104   105    1
   111   105   106    1
   112    55    56    1
   113    50    47    1
   114    42    44    1
   115    42    39    1
   116    41    40    2
   117    10     8   ar
   118    47    46    1
   119    61    59    1
   120   109   108    1
   121     6     8   ar
   122     6     5    1
   123   108   110    1
   124   108   107    2
   125    29    27    1
   126    40    39    1
   127   116   117    1
   128   116   115    1
   129    39    38    1
   130   106   107    1
   131    18    20   ar
   132    18    17   ar
   133    59    60    1
   134    59    58    2
   135    20    22   ar
   136    56    57    1
   137    16    17    1
   138    16    13    1
   139     5     2    1
   140    17    19   ar
   141    22    21   ar
   142   112   115    1
   143   112   111    1
   144   112   113    1
   145    19    21   ar
   146    58    57    1
   147   119   113   am
   148   119   120    1
   149     2     1    1
   150     2     3    1
   151    15    14    2
   152    27    24    1
   153    27    28    1
   154    24    23    1
   155    24    25    1
   156    38    32   am
   157    14    23   am
   158    14    13    1
   159   124   123    1
   160   113   114    2
   161     4     3    2
   162    13    12    1
   163   120   123    1
   164   120   121    1
   165    33    32    2
   166    26    25    2
   167    32    31    1
   168    37    35    1
   169    35    34    1
   170   121   122    2
   171    31    34    1
   172    31    30    1
   173    34    36    1
