@<TRIPOS>MOLECULE
tmp/2j4eD01.pdb
 160 153 0 0 0
SMALL
GASTEIGER

@<TRIPOS>ATOM
      1  N         39.3720   57.3530   15.0640 N.3    17  ASN17      -0.1240
      2  CA        39.3240   56.7510   13.7390 C.3    17  ASN17       0.1653
      3  C         37.8730   56.5150   13.3080 C.2    17  ASN17       0.2266
      4  O         37.2300   55.5750   13.7550 O.2    17  ASN17      -0.2867
      5  CB        40.1210   55.4390   13.7690 C.3    17  ASN17       0.1155
      6  CG        40.4010   54.8850   12.3880 C.2    17  ASN17       0.2627
      7  OD1       39.4900   54.7390   11.5650 O.2    17  ASN17      -0.2716
      8  ND2       41.6630   54.5550   12.1290 N.am   17  ASN17      -0.0877
      9  N         36.5810   53.2250   11.7440 N.3    20  LYS20      -0.1245
     10  CA        36.5540   52.1260   12.7110 C.3    20  LYS20       0.1561
     11  C         35.2940   52.1870   13.5500 C.2    20  LYS20       0.2260
     12  O         34.6090   51.1770   13.7400 O.2    20  LYS20      -0.2867
     13  CB        37.7710   52.1670   13.6260 C.3    20  LYS20       0.0271
     14  CG        37.8200   51.0170   14.6090 C.3    20  LYS20       0.0035
     15  CD        39.2390   50.6990   15.0240 C.3    20  LYS20       0.0206
     16  CE        39.8370   51.7930   15.9070 C.3    20  LYS20       0.1093
     17  NZ        41.2310   51.4640   16.3300 N.3    20  LYS20      -0.1314
     18  N         32.4680   51.0820   11.6180 N.3    23  GLU23      -0.1245
     19  CA        32.4500   49.6130   11.5330 C.3    23  GLU23       0.1567
     20  C         31.9560   48.9440   12.8190 C.2    23  GLU23       0.2260
     21  O         31.2340   47.9440   12.7620 O.2    23  GLU23      -0.2867
     22  CB        33.8180   49.0550   11.1130 C.3    23  GLU23       0.0388
     23  CG        33.7770   48.3910    9.7420 C.3    23  GLU23       0.1160
     24  CD        35.1360   48.1980    9.1130 C.2    23  GLU23       0.3649
     25  OE1       35.2670   48.5270    7.9160 O.co2  23  GLU23      -0.2457
     26  OE2       36.0640   47.7190    9.8010 O.co2  23  GLU23      -0.2457
     27  N         50.0110   55.4320   22.3510 N.3    45  GLU45      -0.1245
     28  CA        50.1890   53.9890   22.4900 C.3    45  GLU45       0.1567
     29  C         51.6600   53.6560   22.7060 C.2    45  GLU45       0.2260
     30  O         52.5370   54.3820   22.2540 O.2    45  GLU45      -0.2867
     31  CB        49.6910   53.2800   21.2320 C.3    45  GLU45       0.0388
     32  CG        48.3280   53.7600   20.7410 C.3    45  GLU45       0.1160
     33  CD        47.8130   52.9630   19.5490 C.2    45  GLU45       0.3649
     34  OE1       48.4710   51.9650   19.1600 O.co2  45  GLU45      -0.2457
     35  OE2       46.7450   53.3410   19.0060 O.co2  45  GLU45      -0.2457
     36  N         46.8080   51.0360   26.7550 N.3    57  LYS57      -0.1245
     37  CA        46.0030   52.0340   26.0550 C.3    57  LYS57       0.1561
     38  C         44.7050   52.2650   26.8140 C.2    57  LYS57       0.2260
     39  O         44.2540   53.3980   26.9440 O.2    57  LYS57      -0.2867
     40  CB        45.7030   51.5950   24.6180 C.3    57  LYS57       0.0271
     41  CG        44.9590   52.6380   23.7900 C.3    57  LYS57       0.0035
     42  CD        44.7080   52.1450   22.3770 C.3    57  LYS57       0.0206
     43  CE        44.0650   53.2050   21.4990 C.3    57  LYS57       0.1093
     44  NZ        43.8990   52.7150   20.1030 N.3    57  LYS57      -0.1314
     45  N         42.6590   48.1910   19.0610 N.3    73  ASP73      -0.1225
     46  CA        43.9080   48.2500   18.3050 C.3    73  ASP73       0.1805
     47  C         43.9940   47.1440   17.2880 C.2    73  ASP73       0.2598
     48  O         44.0020   45.9720   17.6420 O.2    73  ASP73      -0.2718
     49  CB        45.1000   48.1090   19.2340 C.3    73  ASP73       0.1424
     50  CG        45.3590   49.3480   20.0010 C.2    73  ASP73       0.3668
     51  OD1       45.9720   50.2780   19.4280 O.co2  73  ASP73      -0.2456
     52  OD2       44.9290   49.3850   21.1690 O.co2  73  ASP73      -0.2456
     53  N         44.0880   47.5320   16.0270 N.am   74  THR74      -0.1953
     54  CA        44.2320   46.6030   14.9400 C.3    74  THR74       0.1897
     55  C         45.7000   46.5050   14.5360 C.2    74  THR74       0.2313
     56  O         46.3780   47.5170   14.3840 O.2    74  THR74      -0.2863
     57  CB        43.4040   47.0590   13.7490 C.3    74  THR74       0.1794
     58  OG1       42.0510   47.2700   14.1760 O.3    74  THR74      -0.2208
     59  CG2       43.4370   46.0280   12.6400 C.3    74  THR74       0.0378
     60  N         51.2760   49.2960   12.0180 N.3    89  ILE89      -0.1231
     61  CA        50.6930   49.4050   10.6810 C.3    89  ILE89       0.1692
     62  C         50.2050   50.8270   10.3650 C.2    89  ILE89       0.2591
     63  O         50.3830   51.3120    9.2570 O.2    89  ILE89      -0.2718
     64  CB        49.5400   48.3890   10.4850 C.3    89  ILE89       0.0266
     65  CG1       49.0360   48.4120    9.0400 C.3    89  ILE89       0.0019
     66  CG2       48.4060   48.6700   11.4510 C.3    89  ILE89       0.0020
     67  CD1       50.1360   48.1700    7.9990 C.3    89  ILE89       0.0001
     68  N         49.6090   51.4940   11.3440 N.am   90  LYS90      -0.1980
     69  CA        49.1460   52.8760   11.1730 C.3    90  LYS90       0.1596
     70  C         50.1800   53.7700   10.4970 C.2    90  LYS90       0.2287
     71  O         49.8720   54.4380    9.5090 O.2    90  LYS90      -0.2864
     72  CB        48.7800   53.4750   12.5320 C.3    90  LYS90       0.0298
     73  CG        48.2660   54.8910   12.4930 C.3    90  LYS90       0.0038
     74  CD        48.0920   55.4250   13.8930 C.3    90  LYS90       0.0206
     75  CE        47.6290   56.8570   13.8740 C.3    90  LYS90       0.1093
     76  NZ        47.4430   57.3560   15.2550 N.3    90  LYS90      -0.1314
     77  N         51.2440   52.4300    6.8390 N.3    93  LEU93      -0.1231
     78  CA        50.1050   52.7350    5.9630 C.3    93  LEU93       0.1693
     79  C         50.0140   54.2210    5.6270 C.2    93  LEU93       0.2591
     80  O         49.7430   54.5810    4.4860 O.2    93  LEU93      -0.2718
     81  CB        48.8000   52.2740    6.6240 C.3    93  LEU93       0.0284
     82  CG        47.4660   52.6750    5.9920 C.3    93  LEU93       0.0019
     83  CD1       47.4050   52.2680    4.5420 C.3    93  LEU93       0.0001
     84  CD2       46.3260   52.0350    6.7620 C.3    93  LEU93       0.0001
     85  N         50.2500   55.0670    6.6280 N.am   94  GLU94      -0.1979
     86  CA        50.1160   56.5180    6.4800 C.3    94  GLU94       0.1602
     87  C         51.0220   57.0630    5.3860 C.2    94  GLU94       0.2287
     88  O         50.6340   57.9700    4.6560 O.2    94  GLU94      -0.2864
     89  CB        50.4370   57.2160    7.8040 C.3    94  GLU94       0.0415
     90  CG        49.6950   58.5220    8.0470 C.3    94  GLU94       0.1163
     91  CD        49.2990   58.7030    9.5200 C.2    94  GLU94       0.3649
     92  OE1       48.4670   57.9120   10.0250 O.co2  94  GLU94      -0.2457
     93  OE2       49.8140   59.6400   10.1760 O.co2  94  GLU94      -0.2457
     94  N         38.9730   52.5290    3.5820 N.3   150  PHE150     -0.1227
     95  CA        39.5620   52.1860    4.8560 C.3   150  PHE150      0.1736
     96  C         40.9840   51.6710    4.7000 C.2   150  PHE150      0.2596
     97  O         41.1970   50.5270    4.3210 O.2   150  PHE150     -0.2718
     98  CB        38.6800   51.1570    5.5730 C.3   150  PHE150      0.0547
     99  CG        38.8030   51.1690    7.0750 C.ar  150  PHE150     -0.0202
    100  CD1       37.9280   50.4120    7.8360 C.ar  150  PHE150     -0.0042
    101  CD2       39.7680   51.9260    7.7340 C.ar  150  PHE150     -0.0042
    102  CE1       38.0170   50.3920    9.2120 C.ar  150  PHE150     -0.0003
    103  CE2       39.8580   51.9120    9.1130 C.ar  150  PHE150     -0.0003
    104  CZ        38.9790   51.1460    9.8540 C.ar  150  PHE150     -0.0000
    105  N         41.9490   52.5370    4.9850 N.am  151  GLY151     -0.1942
    106  CA        43.3450   52.1370    5.1360 C.3   151  GLY151      0.2014
    107  C         43.7810   50.9860    4.2530 C.2   151  GLY151      0.2639
    108  O         43.7330   51.0960    3.0310 O.2   151  GLY151     -0.2714
    109  N         44.1780   49.8720    4.8720 N.am  152  TRP152     -0.1959
    110  CA        44.8200   48.7730    4.1320 C.3   152  TRP152      0.1771
    111  C         43.8650   47.7550    3.5070 C.2   152  TRP152      0.2619
    112  O         44.3210   46.7500    2.9540 O.2   152  TRP152     -0.2715
    113  CB        45.8770   48.0550    4.9950 C.3   152  TRP152      0.0590
    114  CG        45.4470   47.6990    6.3850 C.ar  152  TRP152      0.0006
    115  CD1       45.8030   48.3420    7.5180 C.ar  152  TRP152      0.0946
    116  CD2       44.6020   46.6120    6.7860 C.ar  152  TRP152      0.0152
    117  NE1       45.2260   47.7390    8.6070 N.ar  152  TRP152     -0.2442
    118  CE2       44.4820   46.6750    8.1820 C.ar  152  TRP152      0.0810
    119  CE3       43.9230   45.6020    6.1000 C.ar  152  TRP152      0.0012
    120  CZ2       43.7150   45.7720    8.9090 C.ar  152  TRP152      0.0191
    121  CZ3       43.1640   44.6960    6.8290 C.ar  152  TRP152      0.0001
    122  CH2       43.0680   44.7900    8.2170 C.ar  152  TRP152      0.0015
    123  N         42.5610   48.0300    3.5510 N.am  153  ASP153     -0.1971
    124  CA        41.5440   47.1040    3.0180 C.3   153  ASP153      0.1709
    125  C         41.8140   46.6650    1.5720 C.2   153  ASP153      0.2293
    126  O         41.6700   45.4800    1.2460 O.2   153  ASP153     -0.2864
    127  CB        40.1250   47.7120    3.1000 C.3   153  ASP153      0.1436
    128  CG        39.3300   47.2340    4.3210 C.2   153  ASP153      0.3671
    129  OD1       39.8500   46.4300    5.1300 O.co2 153  ASP153     -0.2456
    130  OD2       38.1580   47.6570    4.4530 O.co2 153  ASP153     -0.2456
    131  N         32.0580   42.3420    4.5880 N.3   173  LYS173     -0.1245
    132  CA        33.2760   42.5480    5.3540 C.3   173  LYS173      0.1561
    133  C         32.9420   42.4890    6.8430 C.2   173  LYS173      0.2260
    134  O         33.6260   41.8100    7.6090 O.2   173  LYS173     -0.2867
    135  CB        33.9260   43.8910    5.0010 C.3   173  LYS173      0.0271
    136  CG        35.3420   44.0470    5.5680 C.3   173  LYS173      0.0035
    137  CD        35.7120   45.5020    5.9020 C.3   173  LYS173      0.0206
    138  CE        36.8050   45.5600    6.9890 C.3   173  LYS173      0.1093
    139  NZ        37.5470   46.8500    6.9880 N.3   173  LYS173     -0.1314
    140  N         38.2960   40.4420   11.0550 N.3   178  HIS178     -0.1226
    141  CA        38.9690   40.5100   12.3470 C.3   178  HIS178      0.1752
    142  C         38.1840   41.3020   13.3790 C.2   178  HIS178      0.2595
    143  O         38.1620   40.9400   14.5510 O.2   178  HIS178     -0.2718
    144  CB        40.3450   41.1470   12.1730 C.3   178  HIS178      0.0759
    145  CG        40.3050   42.4980   11.5320 C.ar  178  HIS178      0.0818
    146  ND1       40.7560   43.6320   12.1680 N.ar  178  HIS178     -0.2268
    147  CD2       39.8460   42.9010   10.3250 C.ar  178  HIS178      0.1154
    148  CE1       40.5900   44.6750   11.3740 C.ar  178  HIS178      0.1986
    149  NE2       40.0390   44.2570   10.2500 N.ar  178  HIS178     -0.2212
    150  N         37.5430   42.3850   12.9460 N.am  179  ARG179     -0.1980
    151  CA        36.7440   43.2010   13.8520 C.3   179  ARG179      0.1597
    152  C         35.4710   42.4810   14.2280 C.2   179  ARG179      0.2287
    153  O         35.0450   42.5460   15.3790 O.2   179  ARG179     -0.2864
    154  CB        36.3970   44.5580   13.2470 C.3   179  ARG179      0.0334
    155  CG        35.8940   45.5620   14.2930 C.3   179  ARG179      0.0492
    156  CD        35.7400   46.9830   13.7630 C.3   179  ARG179      0.2205
    157  NE        36.7810   47.3020   12.7920 N.pl3 179  ARG179     -0.0865
    158  CZ        38.0390   47.6000   13.0990 C.cat 179  ARG179      0.5346
    159  NH1       38.4540   47.6430   14.3570 N.pl3 179  ARG179      0.1354
    160  NH2       38.8980   47.8530   12.1340 N.pl3 179  ARG179      0.1354
@<TRIPOS>BOND
     1   126   125    2
     2   125   124    1
     3   112   111    2
     4   124   127    1
     5   124   123    1
     6   108   107    2
     7   127   128    1
     8   111   123   am
     9   111   110    1
    10    94    95    1
    11   110   109    1
    12   110   113    1
    13   107   109   am
    14   107   106    1
    15    97    96    2
    16   128   130   ar
    17   128   129   ar
    18    80    79    2
    19    83    82    1
    20   131   132    1
    21    88    87    2
    22    96    95    1
    23    96   105   am
    24    95    98    1
    25   105   106    1
    26   113   114    1
    27   135   132    1
    28   135   136    1
    29   132   133    1
    30    87    86    1
    31   136   137    1
    32    98    99    1
    33    79    78    1
    34    79    85   am
    35   137   138    1
    36    78    81    1
    37    78    77    1
    38    82    81    1
    39    82    84    1
    40   119   116   ar
    41   119   121   ar
    42   114   116   ar
    43   114   115   ar
    44    86    85    1
    45    86    89    1
    46   116   118   ar
    47   121   122   ar
    48   133   134    2
    49   139   138    1
    50    99   101   ar
    51    99   100   ar
    52   115   117   ar
    53   101   103   ar
    54    89    90    1
    55   100   102   ar
    56    25    24   ar
    57    67    65    1
    58    90    91    1
    59   118   117   ar
    60   118   120   ar
    61   122   120   ar
    62    65    64    1
    63   103   104   ar
    64    24    23    1
    65    24    26   ar
    66   102   104   ar
    67    63    62    2
    68    71    70    2
    69    91    92   ar
    70    91    93   ar
    71    23    22    1
    72   149   147   ar
    73   149   148   ar
    74   147   145   ar
    75    62    61    1
    76    62    68   am
    77    64    61    1
    78    64    66    1
    79    70    69    1
    80    61    60    1
    81   140   141    1
    82    22    19    1
    83    69    68    1
    84    69    72    1
    85   148   146   ar
    86   145   146   ar
    87   145   144    1
    88    19    18    1
    89    19    20    1
    90     7     6    2
    91     9    10    1
    92     8     6   am
    93   160   158    1
    94   144   141    1
    95   141   142    1
    96     6     5    1
    97    73    72    1
    98    73    74    1
    99    59    57    1
   100    10    11    1
   101    10    13    1
   102    21    20    2
   103   157   158    2
   104   157   156    1
   105   150   142   am
   106   150   151    1
   107   158   159    1
   108   154   151    1
   109   154   155    1
   110     3     2    1
   111     3     4    2
   112   142   143    2
   113    11    12    2
   114    13    14    1
   115     2     5    1
   116     2     1    1
   117    57    58    1
   118    57    54    1
   119   156   155    1
   120   151   152    1
   121    75    74    1
   122    75    76    1
   123   152   153    2
   124    56    55    2
   125    55    54    1
   126    14    15    1
   127    54    53    1
   128    15    16    1
   129    16    17    1
   130    53    47   am
   131    47    48    2
   132    47    46    1
   133    46    45    1
   134    46    49    1
   135    35    33   ar
   136    34    33   ar
   137    49    50    1
   138    51    50   ar
   139    33    32    1
   140    50    52   ar
   141    44    43    1
   142    32    31    1
   143    31    28    1
   144    43    42    1
   145    30    29    2
   146    27    28    1
   147    42    41    1
   148    28    29    1
   149    41    40    1
   150    40    37    1
   151    37    36    1
   152    37    38    1
   153    38    39    2
