@<TRIPOS>MOLECULE
tmp/2j4eF00.pdb
 202 194 0 0 0
SMALL
GASTEIGER

@<TRIPOS>ATOM
      1  N         15.1820   29.5960  -14.1360 N.3    14  VAL14      -0.1231
      2  CA        13.8060   29.1710  -13.8930 C.3    14  VAL14       0.1692
      3  C         13.5930   28.8070  -12.4210 C.2    14  VAL14       0.2593
      4  O         14.1600   27.8350  -11.9210 O.2    14  VAL14      -0.2718
      5  CB        13.3830   28.0020  -14.8010 C.3    14  VAL14       0.0266
      6  CG1       14.4810   26.9600  -14.8940 C.3    14  VAL14       0.0020
      7  CG2       12.0870   27.3930  -14.2930 C.3    14  VAL14       0.0020
      8  N         12.7790   29.6160  -11.7430 N.am   15  THR15      -0.1939
      9  CA        12.4430   29.4360  -10.3330 C.3    15  THR15       0.2028
     10  C         11.0450   30.0010  -10.0760 C.2    15  THR15       0.2643
     11  O         10.5570   30.8440  -10.8380 O.2    15  THR15      -0.2714
     12  CB        13.4590   30.1450   -9.4070 C.3    15  THR15       0.1808
     13  OG1       13.0810   29.9640   -8.0320 O.3    15  THR15      -0.2208
     14  CG2       13.5310   31.6430   -9.7230 C.3    15  THR15       0.0379
     15  N         10.4190   29.5420   -8.9940 N.am   16  GLY16      -0.1939
     16  CA         9.0070   29.8210   -8.7270 C.3    16  GLY16       0.2014
     17  C          8.7170   30.6740   -7.5060 C.2    16  GLY16       0.2638
     18  O          7.5490   30.8480   -7.1490 O.2    16  GLY16      -0.2714
     19  N          9.7630   31.2060   -6.8660 N.am   17  ASN17      -0.1972
     20  CA         9.5910   32.0810   -5.6940 C.3    17  ASN17       0.1688
     21  C         10.5300   33.2930   -5.6830 C.2    17  ASN17       0.2292
     22  O         11.7590   33.1680   -5.6710 O.2    17  ASN17      -0.2864
     23  CB         9.6670   31.2960   -4.3690 C.3    17  ASN17       0.1181
     24  CG        11.0530   30.7600   -4.0640 C.2    17  ASN17       0.2629
     25  OD1       11.4690   30.7280   -2.9050 O.2    17  ASN17      -0.2716
     26  ND2       11.7700   30.3330   -5.0960 N.am   17  ASN17      -0.0877
     27  N         13.7620   33.8260   -3.4460 N.3    20  LYS20      -0.1245
     28  CA        14.9840   33.1400   -3.8520 C.3    20  LYS20       0.1561
     29  C         15.6880   33.8770   -4.9930 C.2    20  LYS20       0.2260
     30  O         16.9110   33.9950   -5.0070 O.2    20  LYS20      -0.2867
     31  CB        14.6600   31.7070   -4.2700 C.3    20  LYS20       0.0271
     32  CG        15.8840   30.8770   -4.5820 C.3    20  LYS20       0.0035
     33  CD        15.6860   29.4370   -4.1740 C.3    20  LYS20       0.0206
     34  CE        14.8180   28.6730   -5.1520 C.3    20  LYS20       0.1093
     35  NZ        14.7770   27.2110   -4.8430 N.3    20  LYS20      -0.1314
     36  N         17.4050   37.1700   -3.6800 N.3    23  GLU23      -0.1245
     37  CA        18.7070   37.0030   -3.0430 C.3    23  GLU23       0.1567
     38  C         19.8300   36.7110   -4.0480 C.2    23  GLU23       0.2260
     39  O         20.9520   37.1970   -3.8780 O.2    23  GLU23      -0.2867
     40  CB        18.6360   35.9320   -1.9490 C.3    23  GLU23       0.0388
     41  CG        17.8430   36.4020   -0.7310 C.3    23  GLU23       0.1160
     42  CD        17.9180   35.4660    0.4560 C.2    23  GLU23       0.3649
     43  OE1       17.1900   35.7140    1.4380 O.co2  23  GLU23      -0.2457
     44  OE2       18.6980   34.4930    0.4230 O.co2  23  GLU23      -0.2457
     45  N          8.5490   29.0290  -13.8190 N.3    41  ILE41      -0.1231
     46  CA         7.9200   27.7160  -13.9460 C.3    41  ILE41       0.1692
     47  C          8.0620   26.9730  -12.6200 C.2    41  ILE41       0.2592
     48  O          9.1580   26.9120  -12.0590 O.2    41  ILE41      -0.2718
     49  CB         8.5530   26.8550  -15.0530 C.3    41  ILE41       0.0266
     50  CG1        8.7610   27.6650  -16.3350 C.3    41  ILE41       0.0019
     51  CG2        7.6760   25.6440  -15.3310 C.3    41  ILE41       0.0020
     52  CD1        9.2990   26.8510  -17.4930 C.3    41  ILE41       0.0001
     53  N          6.9540   26.4360  -12.1110 N.am   42  ASP42      -0.1960
     54  CA         6.9870   25.5540  -10.9430 C.3    42  ASP42       0.1840
     55  C          7.3740   24.1580  -11.4420 C.2    42  ASP42       0.2621
     56  O          6.5370   23.4290  -11.9820 O.2    42  ASP42      -0.2715
     57  CB         5.6260   25.5430  -10.2270 C.3    42  ASP42       0.1450
     58  CG         5.5970   24.6320   -8.9890 C.2    42  ASP42       0.3671
     59  OD1        4.5020   24.1180   -8.6730 O.co2  42  ASP42      -0.2456
     60  OD2        6.6450   24.4310   -8.3290 O.co2  42  ASP42      -0.2456
     61  N          8.6530   23.8150  -11.2780 N.am   43  LEU43      -0.1977
     62  CA         9.2170   22.5740  -11.8140 C.3    43  LEU43       0.1596
     63  C          9.0020   21.4100  -10.8580 C.2    43  LEU43       0.2287
     64  O          9.2100   21.5580   -9.6500 O.2    43  LEU43      -0.2864
     65  CB        10.7250   22.7240  -12.0480 C.3    43  LEU43       0.0297
     66  CG        11.2150   23.7770  -13.0390 C.3    43  LEU43       0.0022
     67  CD1       12.7310   23.7180  -13.1490 C.3    43  LEU43       0.0001
     68  CD2       10.5600   23.5810  -14.4030 C.3    43  LEU43       0.0001
     69  N         10.0120   17.9480   -9.0220 N.3    45  GLU45      -0.1245
     70  CA        11.3000   17.4480   -8.5460 C.3    45  GLU45       0.1567
     71  C         11.1840   15.9960   -8.1050 C.2    45  GLU45       0.2260
     72  O         10.2140   15.6250   -7.4470 O.2    45  GLU45      -0.2867
     73  CB        11.7750   18.2940   -7.3650 C.3    45  GLU45       0.0388
     74  CG        12.0550   19.7520   -7.7030 C.3    45  GLU45       0.1160
     75  CD        11.9180   20.6600   -6.4990 C.2    45  GLU45       0.3649
     76  OE1       12.9190   21.2760   -6.0840 O.co2  45  GLU45      -0.2457
     77  OE2       10.7990   20.7670   -5.9560 O.co2  45  GLU45      -0.2457
     78  N         16.1290   18.1190  -12.4090 N.3    57  LYS57      -0.1245
     79  CA        15.4130   19.3960  -12.4430 C.3    57  LYS57       0.1561
     80  C         15.9080   20.3080  -13.5630 C.2    57  LYS57       0.2260
     81  O         15.1170   21.0140  -14.1910 O.2    57  LYS57      -0.2867
     82  CB        15.5660   20.1160  -11.1000 C.3    57  LYS57       0.0271
     83  CG        14.7840   21.4170  -10.9700 C.3    57  LYS57       0.0035
     84  CD        14.8810   21.9510   -9.5480 C.3    57  LYS57       0.0206
     85  CE        14.1560   23.2670   -9.3900 C.3    57  LYS57       0.1093
     86  NZ        14.1900   23.7450   -7.9890 N.3    57  LYS57      -0.1314
     87  N         17.8360   25.8360   -9.1970 N.3    72  GLU72      -0.1231
     88  CA        18.4400   25.6910   -7.8640 C.3    72  GLU72       0.1699
     89  C         17.5460   24.9280   -6.8720 C.2    72  GLU72       0.2592
     90  O         16.3180   25.0230   -6.9300 O.2    72  GLU72      -0.2718
     91  CB        18.8630   27.0680   -7.3070 C.3    72  GLU72       0.0402
     92  CG        17.9240   27.7110   -6.2720 C.3    72  GLU72       0.1161
     93  CD        18.3340   27.4120   -4.8330 C.2    72  GLU72       0.3649
     94  OE1       17.5190   26.8380   -4.0700 O.co2  72  GLU72      -0.2457
     95  OE2       19.4770   27.7600   -4.4650 O.co2  72  GLU72      -0.2457
     96  N         18.1880   24.1750   -5.9760 N.am   73  ASP73      -0.1960
     97  CA        17.5040   23.3800   -4.9540 C.3    73  ASP73       0.1840
     98  C         18.1460   23.5730   -3.5890 C.2    73  ASP73       0.2622
     99  O         19.3130   23.2400   -3.3910 O.2    73  ASP73      -0.2715
    100  CB        17.5290   21.8900   -5.3110 C.3    73  ASP73       0.1450
    101  CG        16.1580   21.3520   -5.6460 C.2    73  ASP73       0.3671
    102  OD1       15.7610   20.3090   -5.0770 O.co2  73  ASP73      -0.2456
    103  OD2       15.4690   21.9880   -6.4690 O.co2  73  ASP73      -0.2456
    104  N         17.3730   24.1040   -2.6490 N.am   74  THR74      -0.1951
    105  CA        17.8390   24.2940   -1.2870 C.3    74  THR74       0.1897
    106  C         17.3240   23.1470   -0.4230 C.2    74  THR74       0.2313
    107  O         16.2420   22.5940   -0.6680 O.2    74  THR74      -0.2863
    108  CB        17.3830   25.6600   -0.7300 C.3    74  THR74       0.1794
    109  OG1       18.0970   26.7070   -1.4040 O.3    74  THR74      -0.2208
    110  CG2       17.6380   25.7670    0.7700 C.3    74  THR74       0.0378
    111  N         12.2440   19.6430    2.5150 N.3    89  ILE89      -0.1231
    112  CA        12.0070   20.7460    3.4600 C.3    89  ILE89       0.1692
    113  C         10.7820   21.6120    3.1090 C.2    89  ILE89       0.2591
    114  O         10.0710   22.0870    3.9970 O.2    89  ILE89      -0.2718
    115  CB        13.2510   21.6740    3.5790 C.3    89  ILE89       0.0266
    116  CG1       13.0380   22.7250    4.6790 C.3    89  ILE89       0.0019
    117  CG2       13.5510   22.3560    2.2480 C.3    89  ILE89       0.0020
    118  CD1       12.6650   22.1400    6.0360 C.3    89  ILE89       0.0001
    119  N         10.5550   21.8170    1.8150 N.am   90  LYS90      -0.1980
    120  CA         9.4250   22.6080    1.3370 C.3    90  LYS90       0.1596
    121  C          8.1180   22.1160    1.9400 C.2    90  LYS90       0.2287
    122  O          7.2890   22.9190    2.3640 O.2    90  LYS90      -0.2864
    123  CB         9.3330   22.5460   -0.1940 C.3    90  LYS90       0.0298
    124  CG         8.1990   23.3760   -0.7940 C.3    90  LYS90       0.0038
    125  CD         8.0610   23.1570   -2.3010 C.3    90  LYS90       0.0206
    126  CE         7.0620   24.1310   -2.9210 C.3    90  LYS90       0.1093
    127  NZ         6.7100   23.7610   -4.3190 N.3    90  LYS90      -0.1314
    128  N          7.9180   22.3880    5.9720 N.3    93  LEU93      -0.1245
    129  CA         7.7060   23.8250    6.2090 C.3    93  LEU93       0.1561
    130  C          6.2740   24.2880    5.9160 C.2    93  LEU93       0.2260
    131  O          5.7340   25.1220    6.6350 O.2    93  LEU93      -0.2867
    132  CB         8.6900   24.6400    5.3650 C.3    93  LEU93       0.0270
    133  CG         8.5730   26.1610    5.3780 C.3    93  LEU93       0.0019
    134  CD1        8.7620   26.7220    6.7730 C.3    93  LEU93       0.0001
    135  CD2        9.5990   26.7290    4.4300 C.3    93  LEU93       0.0001
    136  N         10.8230   34.4810    5.3680 N.3   150  PHE150     -0.1227
    137  CA        11.3070   33.7190    4.2310 C.3   150  PHE150      0.1736
    138  C         11.4090   32.2890    4.7140 C.2   150  PHE150      0.2596
    139  O         12.4060   31.9080    5.3210 O.2   150  PHE150     -0.2718
    140  CB        12.6780   34.2110    3.7390 C.3   150  PHE150      0.0547
    141  CG        13.1810   33.5210    2.4670 C.ar  150  PHE150     -0.0202
    142  CD1       14.3580   33.9500    1.8680 C.ar  150  PHE150     -0.0042
    143  CD2       12.4810   32.4790    1.8570 C.ar  150  PHE150     -0.0042
    144  CE1       14.8340   33.3450    0.7170 C.ar  150  PHE150     -0.0003
    145  CE2       12.9590   31.8760    0.7090 C.ar  150  PHE150     -0.0003
    146  CZ        14.1310   32.3090    0.1400 C.ar  150  PHE150     -0.0000
    147  N         10.3600   31.5120    4.4610 N.am  151  GLY151     -0.1942
    148  CA        10.3760   30.0860    4.7500 C.3   151  GLY151      0.2014
    149  C         10.9710   29.7830    6.1070 C.2   151  GLY151      0.2639
    150  O         10.5170   30.3270    7.1130 O.2   151  GLY151     -0.2714
    151  N         12.0190   28.9590    6.1220 N.am  152  TRP152     -0.1959
    152  CA        12.5780   28.4200    7.3740 C.3   152  TRP152      0.1771
    153  C         13.6110   29.2990    8.0900 C.2   152  TRP152      0.2619
    154  O         14.0920   28.9220    9.1610 O.2   152  TRP152     -0.2715
    155  CB        13.1510   26.9990    7.1600 C.3   152  TRP152      0.0590
    156  CG        14.0940   26.8260    5.9990 C.ar  152  TRP152      0.0006
    157  CD1       13.8110   26.2520    4.7850 C.ar  152  TRP152      0.0946
    158  CD2       15.4750   27.2040    5.9480 C.ar  152  TRP152      0.0152
    159  NE1       14.9310   26.2590    3.9810 N.ar  152  TRP152     -0.2442
    160  CE2       15.9650   26.8360    4.6730 C.ar  152  TRP152      0.0810
    161  CE3       16.3460   27.8220    6.8530 C.ar  152  TRP152      0.0012
    162  CZ2       17.2810   27.0750    4.2840 C.ar  152  TRP152      0.0191
    163  CZ3       17.6540   28.0550    6.4640 C.ar  152  TRP152      0.0001
    164  CH2       18.1090   27.6840    5.1890 C.ar  152  TRP152      0.0015
    165  N         13.9130   30.4750    7.5360 N.am  153  ASP153     -0.1971
    166  CA        14.9520   31.3670    8.0770 C.3   153  ASP153      0.1709
    167  C         14.8900   31.6070    9.5880 C.2   153  ASP153      0.2293
    168  O         15.9300   31.6000   10.2600 O.2   153  ASP153     -0.2864
    169  CB        14.9130   32.7360    7.3870 C.3   153  ASP153      0.1436
    170  CG        15.8690   32.8430    6.2120 C.2   153  ASP153      0.3671
    171  OD1       16.6900   31.9270    6.0140 O.co2 153  ASP153     -0.2456
    172  OD2       15.8120   33.8650    5.4870 O.co2 153  ASP153     -0.2456
    173  N         22.8660   38.2770    5.7050 N.3   173  LYS173     -0.1245
    174  CA        22.5000   36.9240    5.2780 C.3   173  LYS173      0.1561
    175  C         23.1070   36.6220    3.9130 C.2   173  LYS173      0.2260
    176  O         23.7070   35.5660    3.7100 O.2   173  LYS173     -0.2867
    177  CB        20.9800   36.7580    5.2200 C.3   173  LYS173      0.0271
    178  CG        20.5190   35.3200    4.9780 C.3   173  LYS173      0.0035
    179  CD        19.1130   35.2540    4.3910 C.3   173  LYS173      0.0206
    180  CE        18.7790   33.8390    3.9340 C.3   173  LYS173      0.1093
    181  NZ        17.4200   33.7540    3.3520 N.3   173  LYS173     -0.1314
    182  N         24.1030   29.7570    2.9420 N.3   178  HIS178     -0.1226
    183  CA        24.2160   28.6520    1.9920 C.3   178  HIS178      0.1752
    184  C         24.1710   29.1420    0.5460 C.2   178  HIS178      0.2595
    185  O         24.9640   28.6950   -0.2790 O.2   178  HIS178     -0.2718
    186  CB        23.1020   27.6230    2.2320 C.3   178  HIS178      0.0759
    187  CG        21.7250   28.2130    2.2480 C.ar  178  HIS178      0.0818
    188  ND1       20.8710   28.1430    1.1690 N.ar  178  HIS178     -0.2268
    189  CD2       21.0600   28.8980    3.2090 C.ar  178  HIS178      0.1154
    190  CE1       19.7350   28.7470    1.4680 C.ar  178  HIS178      0.1986
    191  NE2       19.8230   29.2140    2.7010 N.ar  178  HIS178     -0.2212
    192  N         23.2660   30.0730    0.2500 N.am  179  ARG179     -0.1980
    193  CA        23.0900   30.5750   -1.1150 C.3   179  ARG179      0.1597
    194  C         24.2430   31.4520   -1.5710 C.2   179  ARG179      0.2287
    195  O         24.6490   31.3860   -2.7260 O.2   179  ARG179     -0.2864
    196  CB        21.7830   31.3430   -1.2560 C.3   179  ARG179      0.0334
    197  CG        21.3880   31.5630   -2.7170 C.3   179  ARG179      0.0492
    198  CD        20.0750   32.3140   -2.8640 C.3   179  ARG179      0.2205
    199  NE        19.1090   31.9450   -1.8330 N.pl3 179  ARG179     -0.0865
    200  CZ        18.4680   30.7810   -1.7710 C.cat 179  ARG179      0.5346
    201  NH1       18.6760   29.8290   -2.6750 N.pl3 179  ARG179      0.1354
    202  NH2       17.6180   30.5610   -0.7910 N.pl3 179  ARG179      0.1354
@<TRIPOS>BOND
     1    52    50    1
     2    50    49    1
     3    51    49    1
     4    49    46    1
     5     6     5    1
     6     5     7    1
     7     5     2    1
     8    68    66    1
     9    81    80    2
    10     1     2    1
    11    46    45    1
    12    46    47    1
    13     2     3    1
    14    80    79    1
    15    67    66    1
    16    66    65    1
    17    47    53   am
    18    47    48    2
    19    79    78    1
    20    79    82    1
    21     3     4    2
    22     3     8   am
    23    53    54    1
    24    65    62    1
    25    56    55    2
    26    62    61    1
    27    62    63    1
    28     8     9    1
    29    55    61   am
    30    55    54    1
    31    82    83    1
    32    83    84    1
    33    54    57    1
    34    63    64    2
    35    11    10    2
    36     9    10    1
    37     9    12    1
    38    57    58    1
    39    10    15   am
    40    14    12    1
    41    84    85    1
    42    12    13    1
    43    85    86    1
    44    87    88    1
    45    69    70    1
    46    15    16    1
    47    58    59   ar
    48    58    60   ar
    49    16    17    1
    50    70    71    1
    51    70    73    1
    52    71    72    2
    53    88    91    1
    54    88    89    1
    55    74    73    1
    56    74    75    1
    57    17    18    2
    58    17    19   am
    59    91    92    1
    60    90    89    2
    61    89    96   am
    62    19    20    1
    63    75    76   ar
    64    75    77   ar
    65   103   101   ar
    66    92    93    1
    67    96    97    1
    68    20    21    1
    69    20    23    1
    70    21    22    2
    71   101   100    1
    72   101   102   ar
    73   100    97    1
    74    34    35    1
    75    34    33    1
    76    26    24   am
    77    30    29    2
    78    29    28    1
    79    97    98    1
    80    93    95   ar
    81    93    94   ar
    82    32    31    1
    83    32    33    1
    84    23    24    1
    85   127   126    1
    86    31    28    1
    87    24    25    2
    88    38    39    2
    89    38    37    1
    90    28    27    1
    91    36    37    1
    92    98    99    2
    93    98   104   am
    94    37    40    1
    95   126   125    1
    96   198   197    1
    97   198   199    1
    98   195   194    2
    99   197   196    1
   100   201   200    1
   101   104   105    1
   102   125   124    1
   103    40    41    1
   104   199   200    2
   105   200   202    1
   106   194   193    1
   107   109   108    1
   108   105   108    1
   109   105   106    1
   110   196   193    1
   111   193   192    1
   112   124   123    1
   113    41    42    1
   114   108   110    1
   115   107   106    2
   116   185   184    2
   117   123   120    1
   118   146   145   ar
   119   146   144   ar
   120   192   184   am
   121    44    42   ar
   122    42    43   ar
   123   184   183    1
   124   145   143   ar
   125   144   142   ar
   126   188   190   ar
   127   188   187   ar
   128   120   119    1
   129   120   121    1
   130   190   191   ar
   131   119   113   am
   132   143   141   ar
   133   142   141   ar
   134   121   122    2
   135   183   186    1
   136   183   182    1
   137   186   187    1
   138   187   189   ar
   139   117   115    1
   140   141   140    1
   141   111   112    1
   142   191   189   ar
   143   113   112    1
   144   113   114    2
   145   181   180    1
   146   112   115    1
   147   115   116    1
   148   176   175    2
   149   140   137    1
   150   175   174    1
   151   180   179    1
   152   159   160   ar
   153   159   157   ar
   154   137   138    1
   155   137   136    1
   156   162   160   ar
   157   162   164   ar
   158   179   178    1
   159   135   133    1
   160   147   138   am
   161   147   148    1
   162   160   158   ar
   163   116   118    1
   164   138   139    2
   165   148   149    1
   166   157   156   ar
   167   178   177    1
   168   164   163   ar
   169   177   174    1
   170   174   173    1
   171   132   133    1
   172   132   129    1
   173   133   134    1
   174   172   170   ar
   175   130   129    1
   176   130   131    2
   177   158   156   ar
   178   158   161   ar
   179   128   129    1
   180   156   155    1
   181   171   170   ar
   182   149   151   am
   183   149   150    2
   184   151   152    1
   185   170   169    1
   186   163   161   ar
   187   155   152    1
   188   152   153    1
   189   169   166    1
   190   165   166    1
   191   165   153   am
   192   166   167    1
   193   153   154    2
   194   167   168    2
