@<TRIPOS>MOLECULE
tmp/2j4eD00.pdb
 95 88 0 0 0
SMALL
GASTEIGER

@<TRIPOS>ATOM
      1  N         36.6690   55.2090   23.2440 N.3    14  VAL14      -0.1231
      2  CA        37.6070   56.2950   22.9360 C.3    14  VAL14       0.1692
      3  C         38.5260   55.9130   21.7710 C.2    14  VAL14       0.2593
      4  O         39.2620   54.9320   21.8380 O.2    14  VAL14      -0.2718
      5  CB        38.4030   56.8020   24.1970 C.3    14  VAL14       0.0266
      6  CG1       38.6410   55.7020   25.2060 C.3    14  VAL14       0.0020
      7  CG2       39.7200   57.4800   23.7850 C.3    14  VAL14       0.0020
      8  N         38.4460   56.7150   20.7080 N.am   15  THR15      -0.1939
      9  CA        39.0790   56.4460   19.4120 C.3    15  THR15       0.2028
     10  C         39.0050   57.7160   18.5690 C.2    15  THR15       0.2643
     11  O         38.1080   58.5320   18.7660 O.2    15  THR15      -0.2714
     12  CB        38.3340   55.3240   18.6440 C.3    15  THR15       0.1808
     13  OG1       38.9940   55.0450   17.4010 O.3    15  THR15      -0.2208
     14  CG2       36.8910   55.7340   18.3520 C.3    15  THR15       0.0379
     15  N         39.9330   57.8810   17.6320 N.am   16  GLY16      -0.1939
     16  CA        39.9200   59.0260   16.7160 C.3    16  GLY16       0.2014
     17  C         39.7240   58.6170   15.2700 C.2    16  GLY16       0.2638
     18  O         39.8670   59.4350   14.3580 O.2    16  GLY16      -0.2714
     19  N         39.3720   57.3530   15.0640 N.am   17  ASN17      -0.1972
     20  CA        39.3240   56.7510   13.7390 C.3    17  ASN17       0.1688
     21  C         37.8730   56.5150   13.3080 C.2    17  ASN17       0.2292
     22  O         37.2300   55.5750   13.7550 O.2    17  ASN17      -0.2864
     23  CB        40.1210   55.4390   13.7690 C.3    17  ASN17       0.1181
     24  CG        40.4010   54.8850   12.3880 C.2    17  ASN17       0.2629
     25  OD1       39.4900   54.7390   11.5650 O.2    17  ASN17      -0.2716
     26  ND2       41.6630   54.5550   12.1290 N.am   17  ASN17      -0.0877
     27  N         36.5810   53.2250   11.7440 N.3    20  LYS20      -0.1245
     28  CA        36.5540   52.1260   12.7110 C.3    20  LYS20       0.1561
     29  C         35.2940   52.1870   13.5500 C.2    20  LYS20       0.2260
     30  O         34.6090   51.1770   13.7400 O.2    20  LYS20      -0.2867
     31  CB        37.7710   52.1670   13.6260 C.3    20  LYS20       0.0271
     32  CG        37.8200   51.0170   14.6090 C.3    20  LYS20       0.0035
     33  CD        39.2390   50.6990   15.0240 C.3    20  LYS20       0.0206
     34  CE        39.8370   51.7930   15.9070 C.3    20  LYS20       0.1093
     35  NZ        41.2310   51.4640   16.3300 N.3    20  LYS20      -0.1314
     36  N         39.5790   61.1310   21.3840 N.3    41  ILE41      -0.1231
     37  CA        40.8880   61.4090   21.9820 C.3    41  ILE41       0.1692
     38  C         41.9370   60.6020   21.2280 C.2    41  ILE41       0.2592
     39  O         41.8770   59.3720   21.2150 O.2    41  ILE41      -0.2718
     40  CB        40.9730   61.0000   23.4850 C.3    41  ILE41       0.0266
     41  CG1       39.8970   61.6970   24.3270 C.3    41  ILE41       0.0019
     42  CG2       42.3590   61.3210   24.0470 C.3    41  ILE41       0.0020
     43  CD1       39.8710   61.2440   25.7790 C.3    41  ILE41       0.0001
     44  N         42.8830   61.2900   20.5950 N.am   42  ASP42      -0.1960
     45  CA        44.0250   60.6260   19.9680 C.3    42  ASP42       0.1840
     46  C         44.9780   60.1550   21.0760 C.2    42  ASP42       0.2621
     47  O         45.7980   60.9310   21.5680 O.2    42  ASP42      -0.2715
     48  CB        44.7180   61.5820   18.9890 C.3    42  ASP42       0.1450
     49  CG        46.0050   61.0090   18.3960 C.2    42  ASP42       0.3671
     50  OD1       46.9640   61.7990   18.2020 O.co2  42  ASP42      -0.2456
     51  OD2       46.0590   59.7840   18.1200 O.co2  42  ASP42      -0.2456
     52  N         44.8450   58.8830   21.4640 N.am   43  LEU43      -0.1977
     53  CA        45.5570   58.3270   22.6190 C.3    43  LEU43       0.1596
     54  C         46.9930   57.9370   22.2800 C.2    43  LEU43       0.2287
     55  O         47.2430   57.4030   21.2080 O.2    43  LEU43      -0.2864
     56  CB        44.8280   57.0800   23.1460 C.3    43  LEU43       0.0297
     57  CG        43.6170   57.2300   24.0750 C.3    43  LEU43       0.0022
     58  CD1       42.9980   55.8740   24.3240 C.3    43  LEU43       0.0001
     59  CD2       43.9800   57.8980   25.4000 C.3    43  LEU43       0.0001
     60  N         50.0110   55.4320   22.3510 N.3    45  GLU45      -0.1245
     61  CA        50.1890   53.9890   22.4900 C.3    45  GLU45       0.1567
     62  C         51.6600   53.6560   22.7060 C.2    45  GLU45       0.2260
     63  O         52.5370   54.3820   22.2540 O.2    45  GLU45      -0.2867
     64  CB        49.6910   53.2800   21.2320 C.3    45  GLU45       0.0388
     65  CG        48.3280   53.7600   20.7410 C.3    45  GLU45       0.1160
     66  CD        47.8130   52.9630   19.5490 C.2    45  GLU45       0.3649
     67  OE1       48.4710   51.9650   19.1600 O.co2  45  GLU45      -0.2457
     68  OE2       46.7450   53.3410   19.0060 O.co2  45  GLU45      -0.2457
     69  N         46.8080   51.0360   26.7550 N.3    57  LYS57      -0.1245
     70  CA        46.0030   52.0340   26.0550 C.3    57  LYS57       0.1561
     71  C         44.7050   52.2650   26.8140 C.2    57  LYS57       0.2260
     72  O         44.2540   53.3980   26.9440 O.2    57  LYS57      -0.2867
     73  CB        45.7030   51.5950   24.6180 C.3    57  LYS57       0.0271
     74  CG        44.9590   52.6380   23.7900 C.3    57  LYS57       0.0035
     75  CD        44.7080   52.1450   22.3770 C.3    57  LYS57       0.0206
     76  CE        44.0650   53.2050   21.4990 C.3    57  LYS57       0.1093
     77  NZ        43.8990   52.7150   20.1030 N.3    57  LYS57      -0.1314
     78  N         40.4240   50.0980   21.2550 N.3    72  GLU72      -0.1245
     79  CA        40.7970   48.9860   20.3920 C.3    72  GLU72       0.1567
     80  C         42.0310   49.2710   19.5250 C.2    72  GLU72       0.2260
     81  O         42.4050   50.4270   19.3080 O.2    72  GLU72      -0.2867
     82  CB        39.5960   48.5480   19.5550 C.3    72  GLU72       0.0388
     83  CG        39.5000   49.1700   18.1760 C.3    72  GLU72       0.1160
     84  CD        39.9990   48.2370   17.0900 C.2    72  GLU72       0.3649
     85  OE1       40.9890   48.5840   16.3950 O.co2  72  GLU72      -0.2457
     86  OE2       39.3810   47.1590   16.9350 O.co2  72  GLU72      -0.2457
     87  N         49.6090   51.4940   11.3440 N.3    90  LYS90      -0.1245
     88  CA        49.1460   52.8760   11.1730 C.3    90  LYS90       0.1561
     89  C         50.1800   53.7700   10.4970 C.2    90  LYS90       0.2260
     90  O         49.8720   54.4380    9.5090 O.2    90  LYS90      -0.2867
     91  CB        48.7800   53.4750   12.5320 C.3    90  LYS90       0.0271
     92  CG        48.2660   54.8910   12.4930 C.3    90  LYS90       0.0035
     93  CD        48.0920   55.4250   13.8930 C.3    90  LYS90       0.0206
     94  CE        47.6290   56.8570   13.8740 C.3    90  LYS90       0.1093
     95  NZ        47.4430   57.3560   15.2550 N.3    90  LYS90      -0.1314
@<TRIPOS>BOND
     1    90    89    2
     2    89    88    1
     3    88    87    1
     4    88    91    1
     5    25    24    2
     6    27    28    1
     7    26    24   am
     8    24    23    1
     9    92    91    1
    10    92    93    1
    11    28    29    1
    12    28    31    1
    13    21    20    1
    14    21    22    2
    15    29    30    2
    16    31    32    1
    17    20    23    1
    18    20    19    1
    19    94    93    1
    20    94    95    1
    21    18    17    2
    22    32    33    1
    23    33    34    1
    24    19    17   am
    25    17    16    1
    26    34    35    1
    27    85    84   ar
    28    16    15    1
    29    86    84   ar
    30    84    83    1
    31    13    12    1
    32    15    10   am
    33    51    49   ar
    34    83    82    1
    35    50    49   ar
    36    14    12    1
    37    49    48    1
    38    10    11    2
    39    10     9    1
    40    12     9    1
    41    48    45    1
    42    68    66   ar
    43    67    66   ar
    44    81    80    2
    45     9     8    1
    46    80    79    1
    47    66    65    1
    48    82    79    1
    49    45    44    1
    50    45    46    1
    51    77    76    1
    52    79    78    1
    53    44    38   am
    54     8     3   am
    55    65    64    1
    56    46    52   am
    57    46    47    2
    58    55    54    2
    59    39    38    2
    60    38    37    1
    61    64    61    1
    62    36    37    1
    63    52    53    1
    64    76    75    1
    65     3     4    2
    66     3     2    1
    67    37    40    1
    68    63    62    2
    69    54    53    1
    70    60    61    1
    71    75    74    1
    72    61    62    1
    73    53    56    1
    74     2     1    1
    75     2     5    1
    76    56    57    1
    77    40    42    1
    78    40    41    1
    79     7     5    1
    80    74    73    1
    81    57    58    1
    82    57    59    1
    83     5     6    1
    84    41    43    1
    85    73    70    1
    86    70    69    1
    87    70    71    1
    88    71    72    2
