@<TRIPOS>MOLECULE
tmp/2j4gA00.pdb
 181 177 0 0 0
SMALL
GASTEIGER

@<TRIPOS>ATOM
      1  N          8.5900   -8.4890   28.6440 N.3   132  GLY132     -0.1210
      2  CA         7.5750   -9.1920   29.4100 C.3   132  GLY132      0.1956
      3  C          6.1400   -8.8750   29.0370 C.2   132  GLY132      0.2612
      4  O          5.2270   -9.0920   29.8590 O.2   132  GLY132     -0.2717
      5  N          5.9540   -8.3650   27.8100 N.am  133  PHE133     -0.1962
      6  CA         4.6690   -7.8750   27.3070 C.3   133  PHE133      0.1771
      7  C          3.8550   -9.0210   26.7120 C.2   133  PHE133      0.2619
      8  O          4.4170  -10.0930   26.3990 O.2   133  PHE133     -0.2715
      9  CB         4.8530   -6.7340   26.2420 C.3   133  PHE133      0.0574
     10  CG         5.7910   -7.0970   25.1320 C.ar  133  PHE133     -0.0200
     11  CD1        5.3530   -7.8760   24.0440 C.ar  133  PHE133     -0.0042
     12  CD2        7.1300   -6.6900   25.1790 C.ar  133  PHE133     -0.0042
     13  CE1        6.2440   -8.2330   23.0390 C.ar  133  PHE133     -0.0003
     14  CE2        8.0150   -7.0400   24.1800 C.ar  133  PHE133     -0.0003
     15  CZ         7.5940   -7.8310   23.1250 C.ar  133  PHE133     -0.0000
     16  N          2.5460   -8.7880   26.5680 N.am  134  TYR134     -0.1974
     17  CA         1.6720   -9.6320   25.7590 C.3   134  TYR134      0.1639
     18  C          1.6760   -9.1630   24.2930 C.2   134  TYR134      0.2290
     19  O          1.6470   -7.9780   24.0300 O.2   134  TYR134     -0.2864
     20  CB         0.2360   -9.5580   26.2470 C.3   134  TYR134      0.0560
     21  CG         0.0040   -9.9840   27.6580 C.ar  134  TYR134     -0.0198
     22  CD1       -0.3270  -11.2870   27.9530 C.ar  134  TYR134     -0.0009
     23  CD2        0.0620   -9.0770   28.6850 C.ar  134  TYR134     -0.0009
     24  CE1       -0.6050  -11.6990   29.2530 C.ar  134  TYR134      0.0417
     25  CE2       -0.1980   -9.4640   29.9940 C.ar  134  TYR134      0.0417
     26  CZ        -0.5410  -10.7790   30.2660 C.ar  134  TYR134      0.1957
     27  OH        -0.8110  -11.1730   31.5610 O.3   134  TYR134     -0.2866
     28  N          5.1210  -12.9550   27.2550 N.3   163  LYS163     -0.1245
     29  CA         3.9430  -13.6760   27.7270 C.3   163  LYS163      0.1561
     30  C          3.4850  -14.7760   26.7480 C.2   163  LYS163      0.2260
     31  O          2.9870  -15.8420   27.1430 O.2   163  LYS163     -0.2867
     32  CB         2.8140  -12.6940   28.0180 C.3   163  LYS163      0.0271
     33  CG         3.0320  -11.8710   29.2860 C.3   163  LYS163      0.0035
     34  CD         2.8580  -12.7180   30.5490 C.3   163  LYS163      0.0206
     35  CE         2.8150  -11.8630   31.8240 C.3   163  LYS163      0.1093
     36  NZ         4.1670  -11.2730   32.0300 N.3   163  LYS163     -0.1314
     37  N          2.9370  -13.1260   37.8570 N.3   239  ASP239     -0.1225
     38  CA         2.0430  -12.0100   37.4810 C.3   239  ASP239      0.1805
     39  C          0.9020  -12.4540   36.5790 C.2   239  ASP239      0.2597
     40  O          1.0790  -13.3310   35.7260 O.2   239  ASP239     -0.2718
     41  CB         2.8260  -10.8620   36.8010 C.3   239  ASP239      0.1424
     42  CG         3.6220  -11.3170   35.5390 C.2   239  ASP239      0.3668
     43  OD1        4.0490  -12.4800   35.4700 O.co2 239  ASP239     -0.2456
     44  OD2        3.8460  -10.4920   34.6130 O.co2 239  ASP239     -0.2456
     45  N         -0.2690  -11.8400   36.7720 N.am  240  ASP240     -0.1974
     46  CA        -1.3970  -12.0180   35.8670 C.3   240  ASP240      0.1709
     47  C         -1.8300  -13.4750   35.7400 C.2   240  ASP240      0.2293
     48  O         -2.0170  -14.0070   34.6290 O.2   240  ASP240     -0.2864
     49  CB        -1.0530  -11.4710   34.4790 C.3   240  ASP240      0.1436
     50  CG        -0.9410   -9.9590   34.4350 C.2   240  ASP240      0.3671
     51  OD1       -1.1560   -9.2700   35.4570 O.co2 240  ASP240     -0.2456
     52  OD2       -0.6360   -9.4610   33.3350 O.co2 240  ASP240     -0.2456
     53  N          8.6480  -12.3080   40.4150 N.3   275  CYS275     -0.1235
     54  CA         7.6230  -11.3240   40.1200 C.3   275  CYS275      0.1677
     55  C          6.4080  -11.7000   40.9080 C.2   275  CYS275      0.2270
     56  O          5.8410  -12.7460   40.6570 O.2   275  CYS275     -0.2867
     57  CB         7.2660  -11.3080   38.6290 C.3   275  CYS275      0.0956
     58  SG         6.1770   -9.9620   38.2490 S.3   275  CYS275     -0.0801
     59  N          1.6670   -6.9060   42.4290 N.3   279  TYR279     -0.1241
     60  CA         2.8710   -6.2820   41.9060 C.3   279  TYR279      0.1605
     61  C          2.7790   -4.7660   41.7930 C.2   279  TYR279      0.2264
     62  O          3.7110   -4.1030   41.3150 O.2   279  TYR279     -0.2867
     63  CB         3.2680   -6.9030   40.5550 C.3   279  TYR279      0.0534
     64  CG         2.2030   -6.9280   39.4580 C.ar  279  TYR279     -0.0201
     65  CD1        1.7840   -5.7560   38.8190 C.ar  279  TYR279     -0.0009
     66  CD2        1.6680   -8.1220   39.0180 C.ar  279  TYR279     -0.0009
     67  CE1        0.8070   -5.7750   37.8110 C.ar  279  TYR279      0.0417
     68  CE2        0.7180   -8.1460   38.0000 C.ar  279  TYR279      0.0417
     69  CZ         0.2990   -6.9630   37.4100 C.ar  279  TYR279      0.1957
     70  OH        -0.6170   -6.9930   36.3910 O.3   279  TYR279     -0.2866
     71  N         10.1890   -7.9210   42.1520 N.3   305  MET305     -0.1230
     72  CA         9.7570   -6.8960   41.1970 C.3   305  MET305      0.1702
     73  C          8.4960   -6.1730   41.6330 C.2   305  MET305      0.2592
     74  O          7.6860   -6.7140   42.3760 O.2   305  MET305     -0.2718
     75  CB         9.5800   -7.5010   39.8090 C.3   305  MET305      0.0401
     76  CG        10.7990   -8.2640   39.4020 C.3   305  MET305      0.0596
     77  SD        10.7040   -8.8650   37.7380 S.3   305  MET305     -0.1393
     78  CE        11.5550   -7.5150   36.9020 C.3   305  MET305      0.0692
     79  N          8.3570   -4.9400   41.1450 N.am  306  TRP306     -0.1962
     80  CA         7.2870   -4.0190   41.5450 C.3   306  TRP306      0.1771
     81  C          7.0810   -2.9670   40.4630 C.2   306  TRP306      0.2620
     82  O          8.0560   -2.4830   39.8940 O.2   306  TRP306     -0.2715
     83  CB         7.7180   -3.3150   42.8360 C.3   306  TRP306      0.0590
     84  CG         6.6600   -2.5450   43.5130 C.ar  306  TRP306      0.0006
     85  CD1        6.6300   -1.1900   43.6860 C.ar  306  TRP306      0.0946
     86  CD2        5.4740   -3.0700   44.1590 C.ar  306  TRP306      0.0152
     87  NE1        5.4940   -0.8370   44.3810 N.ar  306  TRP306     -0.2442
     88  CE2        4.7770   -1.9710   44.6900 C.ar  306  TRP306      0.0810
     89  CE3        4.9630   -4.3630   44.3620 C.ar  306  TRP306      0.0012
     90  CZ2        3.5890   -2.1140   45.4060 C.ar  306  TRP306      0.0191
     91  CZ3        3.7610   -4.5100   45.0290 C.ar  306  TRP306      0.0001
     92  CH2        3.0810   -3.3820   45.5500 C.ar  306  TRP306      0.0015
     93  N          5.8300   -2.6150   40.1810 N.am  307  THR307     -0.1951
     94  CA         5.5140   -1.5480   39.1860 C.3   307  THR307      0.1897
     95  C          5.1210   -0.1790   39.7780 C.2   307  THR307      0.2313
     96  O          4.9250    0.7780   39.0340 O.2   307  THR307     -0.2863
     97  CB         4.4120   -1.9370   38.1630 C.3   307  THR307      0.1794
     98  OG1        3.1740   -2.1200   38.8390 O.3   307  THR307     -0.2208
     99  CG2        4.7270   -3.1840   37.4560 C.3   307  THR307      0.0378
    100  N         -0.6200   -0.5000   38.1470 N.3   311  VAL311     -0.1231
    101  CA        -0.0580   -1.3990   37.1130 C.3   311  VAL311      0.1692
    102  C          0.8540   -0.6180   36.2010 C.2   311  VAL311      0.2591
    103  O          1.9920   -1.0220   35.9690 O.2   311  VAL311     -0.2718
    104  CB        -1.1580   -2.0720   36.2430 C.3   311  VAL311      0.0266
    105  CG1       -0.5770   -2.8900   35.0940 C.3   311  VAL311      0.0020
    106  CG2       -2.0370   -2.9690   37.0930 C.3   311  VAL311      0.0020
    107  N          0.3260    0.4920   35.6760 N.am  312  ILE312     -0.1980
    108  CA         1.1270    1.4960   35.0020 C.3   312  ILE312      0.1595
    109  C          1.2350    2.7400   35.8870 C.2   312  ILE312      0.2287
    110  O          0.2410    3.4320   36.1230 O.2   312  ILE312     -0.2864
    111  CB         0.5610    1.9400   33.5950 C.3   312  ILE312      0.0276
    112  CG1       -0.2360    0.8350   32.9140 C.3   312  ILE312      0.0022
    113  CG2        1.7080    2.4530   32.7160 C.3   312  ILE312      0.0022
    114  CD1        0.5450   -0.4250   32.5240 C.3   312  ILE312      0.0001
    115  N          9.9520   -2.7630   37.7730 N.3   334  TRP334     -0.1241
    116  CA         9.4420   -3.0450   36.4320 C.3   334  TRP334      0.1605
    117  C          8.6040   -1.8450   36.0180 C.2   334  TRP334      0.2264
    118  O          7.4910   -1.6650   36.4870 O.2   334  TRP334     -0.2867
    119  CB         8.5860   -4.3250   36.5180 C.3   334  TRP334      0.0550
    120  CG         7.8820   -4.8610   35.2510 C.ar  334  TRP334      0.0003
    121  CD1        7.1140   -4.1470   34.3350 C.ar  334  TRP334      0.0946
    122  CD2        7.7710   -6.2420   34.8650 C.ar  334  TRP334      0.0152
    123  NE1        6.5970   -5.0050   33.3930 N.ar  334  TRP334     -0.2442
    124  CE2        6.9830   -6.2890   33.6940 C.ar  334  TRP334      0.0810
    125  CE3        8.2750   -7.4390   35.3970 C.ar  334  TRP334      0.0012
    126  CZ2        6.7020   -7.4950   33.0260 C.ar  334  TRP334      0.0191
    127  CZ3        8.0120   -8.6210   34.7490 C.ar  334  TRP334      0.0001
    128  CH2        7.2150   -8.6490   33.5710 C.ar  334  TRP334      0.0015
    129  N          6.2770    0.0530   33.4860 N.3   336  ASN336     -0.1240
    130  CA         5.4610   -0.2110   32.3240 C.3   336  ASN336      0.1653
    131  C          5.3380    0.9410   31.3380 C.2   336  ASN336      0.2266
    132  O          4.2610    1.4830   31.1390 O.2   336  ASN336     -0.2867
    133  CB         4.1120   -0.7070   32.7650 C.3   336  ASN336      0.1155
    134  CG         4.1540   -2.1580   33.0880 C.2   336  ASN336      0.2627
    135  OD1        4.6980   -2.9740   32.3030 O.2   336  ASN336     -0.2716
    136  ND2        3.6340   -2.5080   34.2550 N.am  336  ASN336     -0.0877
    137  N          5.8780   -0.2120   26.6400 N.3   339  VAL339     -0.1245
    138  CA         4.6710   -1.0100   26.8730 C.3   339  VAL339      0.1561
    139  C          3.3810   -0.4490   26.3580 C.2   339  VAL339      0.2260
    140  O          2.9030    0.5470   26.8610 O.2   339  VAL339     -0.2867
    141  CB         4.5570   -1.9300   28.1440 C.3   339  VAL339      0.0252
    142  CG1        3.8500   -1.2670   29.2600 C.3   339  VAL339      0.0019
    143  CG2        3.7100   -3.1340   27.7400 C.3   339  VAL339      0.0019
    144  N          0.8990   -2.8470   25.1000 N.3   341  ASP341     -0.1225
    145  CA         0.1680   -4.0750   24.8170 C.3   341  ASP341      0.1805
    146  C         -1.3230   -3.9950   25.1860 C.2   341  ASP341      0.2597
    147  O         -2.0920   -4.9140   24.9060 O.2   341  ASP341     -0.2718
    148  CB         0.9200   -5.3290   25.3640 C.3   341  ASP341      0.1424
    149  CG         0.9530   -5.4290   26.9170 C.2   341  ASP341      0.3668
    150  OD1        0.1400   -4.7720   27.6040 O.co2 341  ASP341     -0.2456
    151  OD2        1.8030   -6.2270   27.4460 O.co2 341  ASP341     -0.2456
    152  N         -1.7100   -2.8800   25.8060 N.am  342  TYR342     -0.1976
    153  CA        -3.1060   -2.5870   26.1340 C.3   342  TYR342      0.1639
    154  C         -3.5840   -1.3060   25.4100 C.2   342  TYR342      0.2290
    155  O         -4.7420   -0.9110   25.5400 O.2   342  TYR342     -0.2864
    156  CB        -3.2930   -2.4430   27.6450 C.3   342  TYR342      0.0560
    157  CG        -2.5140   -1.2840   28.2000 C.ar  342  TYR342     -0.0198
    158  CD1       -1.1640   -1.4260   28.4780 C.ar  342  TYR342     -0.0009
    159  CD2       -3.1100   -0.0350   28.4030 C.ar  342  TYR342     -0.0009
    160  CE1       -0.4330   -0.4060   28.9630 C.ar  342  TYR342      0.0417
    161  CE2       -2.3580    1.0440   28.8890 C.ar  342  TYR342      0.0417
    162  CZ        -1.0200    0.8310   29.1690 C.ar  342  TYR342      0.1957
    163  OH        -0.2000    1.8300   29.6500 O.3   342  TYR342     -0.2866
    164  N          9.6780   -2.4300   30.5660 N.3   369  ASN369     -0.1240
    165  CA         8.7990   -3.2500   29.7260 C.3   369  ASN369      0.1653
    166  C          8.4000   -2.4260   28.4820 C.2   369  ASN369      0.2266
    167  O          7.7340   -1.3900   28.6240 O.2   369  ASN369     -0.2867
    168  CB         7.5280   -3.5920   30.5080 C.3   369  ASN369      0.1155
    169  CG         6.7120   -4.7310   29.8680 C.2   369  ASN369      0.2627
    170  OD1        7.2330   -5.5790   29.1150 O.2   369  ASN369     -0.2716
    171  ND2        5.4310   -4.7310   30.1500 N.am  369  ASN369     -0.0877
    172  N         -6.2470    1.5380   32.1190 N.3   430  HIS430     -0.1241
    173  CA        -5.3050    1.8510   33.2230 C.3   430  HIS430      0.1621
    174  C         -5.2190    3.3180   33.5790 C.2   430  HIS430      0.2264
    175  O         -4.4830    3.6700   34.4860 O.2   430  HIS430     -0.2867
    176  CB        -3.8620    1.3790   32.9130 C.3   430  HIS430      0.0745
    177  CG        -3.7160   -0.1040   32.8080 C.ar  430  HIS430      0.0817
    178  ND1       -4.0790   -0.9580   33.8250 N.ar  430  HIS430     -0.2268
    179  CD2       -3.2410   -0.8870   31.8100 C.ar  430  HIS430      0.1154
    180  CE1       -3.8330   -2.2060   33.4580 C.ar  430  HIS430      0.1986
    181  NE2       -3.3270   -2.1920   32.2380 N.ar  430  HIS430     -0.2212
@<TRIPOS>BOND
     1    13    15   ar
     2    13    11   ar
     3    15    14   ar
     4    19    18    2
     5    11    10   ar
     6    14    12   ar
     7    18    17    1
     8   145   144    1
     9   145   146    1
    10   145   148    1
    11   147   146    2
    12    10    12   ar
    13    10     9    1
    14   146   152   am
    15   148   149    1
    16   154   155    2
    17   154   153    1
    18    17    20    1
    19    17    16    1
    20   152   153    1
    21   153   156    1
    22     9     6    1
    23    20    21    1
    24   139   140    2
    25   139   138    1
    26     8     7    2
    27    16     7   am
    28   137   138    1
    29     7     6    1
    30    30    31    2
    31    30    29    1
    32   138   141    1
    33   149   151   ar
    34   149   150   ar
    35    28    29    1
    36     6     5    1
    37   156   157    1
    38    21    22   ar
    39    21    23   ar
    40    29    32    1
    41   143   141    1
    42     5     3   am
    43    22    24   ar
    44    32    33    1
    45   141   142    1
    46   157   159   ar
    47   157   158   ar
    48   159   161   ar
    49   158   160   ar
    50   166   167    2
    51   166   165    1
    52     1     2    1
    53    23    25   ar
    54   161   162   ar
    55   160   162   ar
    56     3     2    1
    57     3     4    2
    58   170   169    2
    59   162   163    1
    60    24    26   ar
    61    33    34    1
    62   165   168    1
    63   165   164    1
    64   169   171   am
    65   169   168    1
    66    25    26   ar
    67    26    27    1
    68    34    35    1
    69   132   131    2
    70   131   130    1
    71   179   181   ar
    72   179   177   ar
    73    35    36    1
    74   172   173    1
    75   181   180   ar
    76   135   134    2
    77   130   133    1
    78   130   129    1
    79   114   112    1
    80   113   111    1
    81   133   134    1
    82   177   176    1
    83   177   178   ar
    84   176   173    1
    85   112   111    1
    86   126   128   ar
    87   126   124   ar
    88   134   136   am
    89   173   174    1
    90    52    50   ar
    91   123   124   ar
    92   123   121   ar
    93   180   178   ar
    94   128   127   ar
    95   174   175    2
    96   111   108    1
    97   124   122   ar
    98   121   120   ar
    99    50    49    1
   100    50    51   ar
   101    49    46    1
   102    44    42   ar
   103    48    47    2
   104   127   125   ar
   105   122   120   ar
   106   122   125   ar
   107   108   107    1
   108   108   109    1
   109   105   104    1
   110   120   119    1
   111    43    42   ar
   112    42    41    1
   113   107   102   am
   114    40    39    2
   115    47    46    1
   116    46    45    1
   117   109   110    2
   118   103   102    2
   119   117   116    1
   120   117   118    2
   121   102   101    1
   122   104   106    1
   123   104   101    1
   124    70    69    1
   125   116   119    1
   126   116   115    1
   127    39    45   am
   128    39    38    1
   129    41    38    1
   130    78    77    1
   131   101   100    1
   132    69    67   ar
   133    69    68   ar
   134    99    97    1
   135    38    37    1
   136    77    76    1
   137    67    65   ar
   138    68    66   ar
   139    97    98    1
   140    97    94    1
   141    58    57    1
   142    57    54    1
   143    65    64   ar
   144    66    64   ar
   145    96    95    2
   146    94    95    1
   147    94    93    1
   148    76    75    1
   149    64    63    1
   150    75    72    1
   151    82    81    2
   152    54    53    1
   153    54    55    1
   154    93    81   am
   155    81    80    1
   156    63    60    1
   157    56    55    2
   158    79    80    1
   159    79    73   am
   160    72    73    1
   161    72    71    1
   162    62    61    2
   163    80    83    1
   164    73    74    2
   165    61    60    1
   166    60    59    1
   167    83    84    1
   168    84    85   ar
   169    84    86   ar
   170    85    87   ar
   171    86    89   ar
   172    86    88   ar
   173    89    91   ar
   174    87    88   ar
   175    88    90   ar
   176    91    92   ar
   177    90    92   ar
