@<TRIPOS>MOLECULE
tmp/2j4hB00.pdb
 122 119 0 0 0
SMALL
GASTEIGER

@<TRIPOS>ATOM
      1  N          8.7640  -24.3110   67.1860 N.3    58  LYS58      -0.1245
      2  CA         9.0450  -22.8800   67.3310 C.3    58  LYS58       0.1561
      3  C          8.1730  -22.2340   68.3840 C.2    58  LYS58       0.2260
      4  O          8.6540  -21.4240   69.1550 O.2    58  LYS58      -0.2867
      5  CB         8.7560  -22.1340   66.0290 C.3    58  LYS58       0.0271
      6  CG         9.7460  -22.3300   64.9080 C.3    58  LYS58       0.0035
      7  CD         9.0300  -22.2230   63.5430 C.3    58  LYS58       0.0206
      8  CE         8.1000  -20.9870   63.4260 C.3    58  LYS58       0.1093
      9  NZ         7.3730  -20.9680   62.1220 N.3    58  LYS58      -0.1314
     10  N         26.2500  -12.1060   58.9350 N.3   107  LEU107     -0.1245
     11  CA        26.5380  -11.0470   59.9050 C.3   107  LEU107      0.1561
     12  C         27.8040  -11.3770   60.6890 C.2   107  LEU107      0.2260
     13  O         27.8980  -12.4140   61.3300 O.2   107  LEU107     -0.2867
     14  CB        25.3670  -10.8820   60.8800 C.3   107  LEU107      0.0270
     15  CG        25.4510   -9.7720   61.9420 C.3   107  LEU107      0.0019
     16  CD1       25.6700   -8.3920   61.3720 C.3   107  LEU107      0.0001
     17  CD2       24.1710   -9.7530   62.7530 C.3   107  LEU107      0.0001
     18  N         26.5260  -13.1910   67.4200 N.3   121  ALA121     -0.1245
     19  CA        26.2730  -14.3900   66.5930 C.3   121  ALA121      0.1562
     20  C         27.3880  -14.7340   65.6300 C.2   121  ALA121      0.2260
     21  O         27.3240  -14.2560   64.5160 O.2   121  ALA121     -0.2867
     22  CB        24.9830  -14.1390   65.7920 C.3   121  ALA121      0.0290
     23  N         24.7790  -18.5220   64.8330 N.3   124  ALA124     -0.1231
     24  CA        23.9930  -18.3560   63.6310 C.3   124  ALA124      0.1694
     25  C         24.1940  -16.9270   63.1430 C.2   124  ALA124      0.2592
     26  O         23.5280  -15.9850   63.5850 O.2   124  ALA124     -0.2718
     27  CB        22.5150  -18.6060   63.9200 C.3   124  ALA124      0.0304
     28  N         25.1410  -16.7690   62.2300 N.am  125  HIS125     -0.1962
     29  CA        25.3670  -15.4860   61.5720 C.3   125  HIS125      0.1787
     30  C         24.6970  -15.3750   60.1790 C.2   125  HIS125      0.2620
     31  O         24.9440  -14.4190   59.4550 O.2   125  HIS125     -0.2715
     32  CB        26.8740  -15.2090   61.5310 C.3   125  HIS125      0.0785
     33  CG        27.6480  -16.0260   60.5370 C.ar  125  HIS125      0.0821
     34  ND1       27.2520  -17.2800   60.1140 N.ar  125  HIS125     -0.2267
     35  CD2       28.8300  -15.7730   59.9130 C.ar  125  HIS125      0.1154
     36  CE1       28.1540  -17.7600   59.2680 C.ar  125  HIS125      0.1986
     37  NE2       29.1130  -16.8610   59.1210 N.ar  125  HIS125     -0.2212
     38  N         23.8170  -16.3230   59.8410 N.am  126  ARG126     -0.1963
     39  CA        23.2520  -16.4540   58.4840 C.3   126  ARG126      0.1729
     40  C         21.9310  -15.7180   58.3370 C.2   126  ARG126      0.2616
     41  O         21.0240  -15.9080   59.1370 O.2   126  ARG126     -0.2715
     42  CB        23.0420  -17.9190   58.1530 C.3   126  ARG126      0.0348
     43  CG        22.8990  -18.2090   56.7030 C.3   126  ARG126      0.0492
     44  CD        22.3860  -19.5930   56.4130 C.3   126  ARG126      0.2205
     45  NE        21.0480  -19.7570   56.9920 N.pl3 126  ARG126     -0.0865
     46  CZ        20.7430  -20.5240   58.0370 C.cat 126  ARG126      0.5346
     47  NH1       21.6480  -21.2410   58.6990 N.pl3 126  ARG126      0.1354
     48  NH2       19.4980  -20.5580   58.4350 N.pl3 126  ARG126      0.1354
     49  N         21.8450  -14.8550   57.3260 N.am  127  ILE127     -0.1963
     50  CA        20.5830  -14.1900   56.9730 C.3   127  ILE127      0.1727
     51  C         20.0900  -14.8180   55.6900 C.2   127  ILE127      0.2616
     52  O         20.8020  -14.8330   54.6880 O.2   127  ILE127     -0.2715
     53  CB        20.7630  -12.6830   56.7560 C.3   127  ILE127      0.0290
     54  CG1       21.7250  -12.0630   57.7840 C.3   127  ILE127      0.0022
     55  CG2       19.4120  -11.9950   56.7750 C.3   127  ILE127      0.0023
     56  CD1       21.3140  -12.2480   59.2320 C.3   127  ILE127      0.0001
     57  N         18.8850  -15.3530   55.7050 N.am  128  ASP128     -0.1971
     58  CA        18.4820  -16.2070   54.6090 C.3   128  ASP128      0.1709
     59  C         17.9630  -15.4590   53.3710 C.2   128  ASP128      0.2293
     60  O         17.4870  -14.3200   53.4630 O.2   128  ASP128     -0.2864
     61  CB        17.4280  -17.1880   55.0660 C.3   128  ASP128      0.1436
     62  CG        17.9860  -18.2440   55.9290 C.2   128  ASP128      0.3671
     63  OD1       18.9350  -18.9200   55.4920 O.co2 128  ASP128     -0.2456
     64  OD2       17.5360  -18.4890   57.0550 O.co2 128  ASP128     -0.2456
     65  N         14.7710  -13.4610   53.7040 N.3   131  TRP131     -0.1241
     66  CA        14.6620  -12.7550   54.9810 C.3   131  TRP131      0.1605
     67  C         14.2150  -11.3330   54.6890 C.2   131  TRP131      0.2264
     68  O         14.6560  -10.7250   53.7330 O.2   131  TRP131     -0.2867
     69  CB        15.9790  -12.7400   55.7880 C.3   131  TRP131      0.0550
     70  CG        15.8410  -11.9030   57.0550 C.ar  131  TRP131      0.0003
     71  CD1       16.2650  -10.6200   57.2510 C.ar  131  TRP131      0.0946
     72  CD2       15.1530  -12.2780   58.2600 C.ar  131  TRP131      0.0152
     73  NE1       15.9080  -10.1860   58.5080 N.ar  131  TRP131     -0.2442
     74  CE2       15.2150  -11.1810   59.1430 C.ar  131  TRP131      0.0810
     75  CE3       14.4800  -13.4330   58.6790 C.ar  131  TRP131      0.0012
     76  CZ2       14.6400  -11.2080   60.4120 C.ar  131  TRP131      0.0191
     77  CZ3       13.9350  -13.4660   59.9420 C.ar  131  TRP131      0.0001
     78  CH2       14.0130  -12.3610   60.7940 C.ar  131  TRP131      0.0015
     79  N         17.4570   -7.7070   62.1310 N.3   135  ILE135     -0.1231
     80  CA        18.1960   -8.8520   62.5810 C.3   135  ILE135      0.1692
     81  C         18.2700   -8.7900   64.0980 C.2   135  ILE135      0.2592
     82  O         18.7440   -7.8130   64.6720 O.2   135  ILE135     -0.2718
     83  CB        19.5940   -8.8430   61.9480 C.3   135  ILE135      0.0266
     84  CG1       19.4550   -8.9310   60.4220 C.3   135  ILE135      0.0019
     85  CG2       20.4570  -10.0020   62.5170 C.3   135  ILE135      0.0020
     86  CD1       20.6710   -8.4930   59.6870 C.3   135  ILE135      0.0001
     87  N         17.7440   -9.8380   64.7210 N.am  136  VAL136     -0.1966
     88  CA        17.8450  -10.0460   66.1570 C.3   136  VAL136      0.1727
     89  C         19.2920  -10.4220   66.4860 C.2   136  VAL136      0.2616
     90  O         19.8810  -11.2470   65.8100 O.2   136  VAL136     -0.2715
     91  CB        16.8820  -11.1730   66.6270 C.3   136  VAL136      0.0290
     92  CG1       16.9790  -11.3980   68.1310 C.3   136  VAL136      0.0023
     93  CG2       15.4430  -10.8460   66.2350 C.3   136  VAL136      0.0023
     94  N         19.8540   -9.7930   67.5110 N.am  137  LEU137     -0.1963
     95  CA        21.2110  -10.0510   67.9260 C.3   137  LEU137      0.1728
     96  C         21.1990  -10.6570   69.3060 C.2   137  LEU137      0.2616
     97  O         20.3520  -10.3070   70.0970 O.2   137  LEU137     -0.2715
     98  CB        21.9800   -8.7540   67.9530 C.3   137  LEU137      0.0311
     99  CG        21.9530   -7.9840   66.6400 C.3   137  LEU137      0.0022
    100  CD1       22.5080   -6.5500   66.7890 C.3   137  LEU137      0.0001
    101  CD2       22.7300   -8.7350   65.5910 C.3   137  LEU137      0.0001
    102  N         22.1020  -11.5990   69.5690 N.am  138  GLU138     -0.1977
    103  CA        22.3860  -12.0790   70.9270 C.3   138  GLU138      0.1602
    104  C         23.7780  -11.5900   71.2270 C.2   138  GLU138      0.2287
    105  O         24.6910  -11.8880   70.4740 O.2   138  GLU138     -0.2864
    106  CB        22.3930  -13.6210   71.0690 C.3   138  GLU138      0.0415
    107  CG        21.7200  -14.4190   69.9610 C.3   138  GLU138      0.1163
    108  CD        22.6340  -14.7040   68.7900 C.2   138  GLU138      0.3649
    109  OE1       23.8360  -15.0010   69.0040 O.co2 138  GLU138     -0.2457
    110  OE2       22.1510  -14.6640   67.6380 O.co2 138  GLU138     -0.2457
    111  N         12.9250  -17.7680   52.6250 N.3   171  TYR171     -0.1241
    112  CA        12.3270  -17.5750   53.9400 C.3   171  TYR171      0.1605
    113  C         10.8390  -17.1410   53.8700 C.2   171  TYR171      0.2264
    114  O         10.0240  -17.5760   54.6870 O.2   171  TYR171     -0.2867
    115  CB        13.1710  -16.5840   54.7470 C.3   171  TYR171      0.0534
    116  CG        13.0390  -16.7020   56.2360 C.ar  171  TYR171     -0.0201
    117  CD1       13.7270  -17.6870   56.9390 C.ar  171  TYR171     -0.0009
    118  CD2       12.2410  -15.8180   56.9490 C.ar  171  TYR171     -0.0009
    119  CE1       13.6030  -17.7980   58.3350 C.ar  171  TYR171      0.0417
    120  CE2       12.1120  -15.9190   58.3230 C.ar  171  TYR171      0.0417
    121  CZ        12.7970  -16.9130   59.0090 C.ar  171  TYR171      0.1957
    122  OH        12.6810  -17.0110   60.3600 O.3   171  TYR171     -0.2866
@<TRIPOS>BOND
     1   111   112    1
     2    59    60    2
     3    59    58    1
     4    65    66    1
     5    68    67    2
     6   113   112    1
     7   113   114    2
     8   112   115    1
     9    58    61    1
    10    58    57    1
    11    52    51    2
    12    67    66    1
    13   115   116    1
    14    66    69    1
    15    61    62    1
    16    63    62   ar
    17    51    57   am
    18    51    50    1
    19    69    70    1
    20    62    64   ar
    21   116   117   ar
    22   116   118   ar
    23    44    43    1
    24    44    45    1
    25    43    42    1
    26    53    55    1
    27    53    50    1
    28    53    54    1
    29   117   119   ar
    30   118   120   ar
    31    50    49    1
    32    45    46    2
    33    70    71   ar
    34    70    72   ar
    35    71    73   ar
    36    49    40   am
    37    54    56    1
    38    46    48    1
    39    46    47    1
    40    42    39    1
    41    72    75   ar
    42    72    74   ar
    43   120   121   ar
    44   119   121   ar
    45    40    39    1
    46    40    41    2
    47    39    38    1
    48    73    74   ar
    49    75    77   ar
    50    10    11    1
    51   121   122    1
    52    37    36   ar
    53    37    35   ar
    54    74    76   ar
    55    36    34   ar
    56    31    30    2
    57    86    84    1
    58    38    30   am
    59    11    12    1
    60    11    14    1
    61    35    33   ar
    62    77    78   ar
    63    34    33   ar
    64    30    29    1
    65    76    78   ar
    66    84    83    1
    67    33    32    1
    68    12    13    2
    69    14    15    1
    70    16    15    1
    71    32    29    1
    72    29    28    1
    73    15    17    1
    74    83    85    1
    75    83    80    1
    76     9     8    1
    77    79    80    1
    78    28    25   am
    79    80    81    1
    80    25    26    2
    81    25    24    1
    82     8     7    1
    83     7     6    1
    84    24    27    1
    85    24    23    1
    86    81    82    2
    87    81    87   am
    88    21    20    2
    89    87    88    1
    90     6     5    1
    91   101    99    1
    92    20    19    1
    93    22    19    1
    94    90    89    2
    95     5     2    1
    96    88    89    1
    97    88    91    1
    98    93    91    1
    99    89    94   am
   100    19    18    1
   101    91    92    1
   102    99   100    1
   103    99    98    1
   104     1     2    1
   105     2     3    1
   106    94    95    1
   107   110   108   ar
   108    95    98    1
   109    95    96    1
   110     3     4    2
   111   108   109   ar
   112   108   107    1
   113    96   102   am
   114    96    97    2
   115   102   103    1
   116   107   106    1
   117   105   104    2
   118   103   106    1
   119   103   104    1
