@<TRIPOS>MOLECULE
tmp/2j4jD00.pdb
 133 123 0 0 0
SMALL
GASTEIGER

@<TRIPOS>ATOM
      1  N         62.8260   81.5690   80.0790 N.3     6  LYS6       -0.1245
      2  CA        64.2670   81.6800   79.9860 C.3     6  LYS6        0.1561
      3  C         64.8070   81.9750   81.3800 C.2     6  LYS6        0.2260
      4  O         64.4300   82.9690   81.9990 O.2     6  LYS6       -0.2867
      5  CB        64.6820   82.7720   78.9860 C.3     6  LYS6        0.0271
      6  CG        66.1180   83.3670   79.1540 C.3     6  LYS6        0.0035
      7  CD        67.2250   82.4020   78.8630 C.3     6  LYS6        0.0206
      8  CE        68.5280   82.7770   79.5310 C.3     6  LYS6        0.1093
      9  NZ        69.2340   83.9530   79.0030 N.3     6  LYS6       -0.1314
     10  N         71.6560   82.5180   83.1900 N.3     9  GLY9       -0.1225
     11  CA        72.7860   81.7040   83.6620 C.3     9  GLY9        0.1811
     12  C         73.2180   82.0890   85.0730 C.2     9  GLY9        0.2280
     13  O         73.7260   81.2750   85.8430 O.2     9  GLY9       -0.2866
     14  N         70.4370   79.5080   80.5870 N.3    42  GLY42      -0.1210
     15  CA        71.6650   80.1990   80.1850 C.3    42  GLY42       0.1956
     16  C         72.9270   79.4680   80.6460 C.2    42  GLY42       0.2612
     17  O         72.8790   78.5170   81.4200 O.2    42  GLY42      -0.2717
     18  N         74.0610   79.9100   80.1340 N.am   43  GLY43      -0.1942
     19  CA        75.3370   79.2260   80.3930 C.3    43  GLY43       0.2014
     20  C         76.0470   79.7240   81.6190 C.2    43  GLY43       0.2639
     21  O         76.7990   78.9730   82.2800 O.2    43  GLY43      -0.2714
     22  N         75.8230   80.9900   81.9380 N.am   44  GLY44      -0.1954
     23  CA        76.3240   81.5680   83.1860 C.3    44  GLY44       0.1869
     24  C         77.8250   81.6640   83.2460 C.2    44  GLY44       0.2309
     25  O         78.4680   81.8600   82.2420 O.2    44  GLY44      -0.2863
     26  N         80.0330   78.9240   81.4030 N.3    47  ALA47      -0.1245
     27  CA        80.2440   79.2730   80.0120 C.3    47  ALA47       0.1562
     28  C         81.3570   80.2850   79.8780 C.2    47  ALA47       0.2260
     29  O         82.2470   80.1410   79.0240 O.2    47  ALA47      -0.2867
     30  CB        78.9710   79.8190   79.3960 C.3    47  ALA47       0.0290
     31  N         84.9210   79.7170   77.8810 N.3    51  ILE51      -0.1245
     32  CA        85.1710   80.5960   76.7520 C.3    51  ILE51       0.1561
     33  C         86.4740   81.3870   76.9090 C.2    51  ILE51       0.2260
     34  O         87.2370   81.5250   75.9510 O.2    51  ILE51      -0.2867
     35  CB        83.9620   81.5680   76.5520 C.3    51  ILE51       0.0252
     36  CG1       82.7840   80.8010   75.9320 C.3    51  ILE51       0.0019
     37  CG2       84.3400   82.7470   75.6840 C.3    51  ILE51       0.0019
     38  CD1       81.4420   81.5760   75.9390 C.3    51  ILE51       0.0001
     39  N         81.6400   79.7610   71.1390 N.3    65  ASP65      -0.1239
     40  CA        80.1830   79.7200   71.2860 C.3    65  ASP65       0.1674
     41  C         79.7060   78.3120   71.6670 C.2    65  ASP65       0.2266
     42  O         78.8300   78.1440   72.5400 O.2    65  ASP65      -0.2867
     43  CB        79.5030   80.1700   69.9920 C.3    65  ASP65       0.1410
     44  CG        79.3560   81.6940   69.8850 C.2    65  ASP65       0.3668
     45  OD1       79.5160   82.4050   70.8980 O.co2  65  ASP65      -0.2456
     46  OD2       79.0260   82.1850   68.7860 O.co2  65  ASP65      -0.2456
     47  N         80.1430   77.5710   75.2360 N.3    68  GLY68      -0.1210
     48  CA        79.0520   78.2590   75.9350 C.3    68  GLY68       0.1956
     49  C         77.7480   77.5170   75.8410 C.2    68  GLY68       0.2611
     50  O         76.9660   77.4530   76.7990 O.2    68  GLY68      -0.2717
     51  N         77.4860   76.9620   74.6650 N.am   69  ILE69      -0.1979
     52  CA        76.2760   76.1460   74.4350 C.3    69  ILE69       0.1595
     53  C         76.2960   74.8700   75.2910 C.2    69  ILE69       0.2287
     54  O         75.2980   74.5270   75.9470 O.2    69  ILE69      -0.2864
     55  CB        76.1240   75.8060   72.9270 C.3    69  ILE69       0.0276
     56  CG1       75.7010   77.0400   72.1290 C.3    69  ILE69       0.0022
     57  CG2       75.1000   74.7260   72.7150 C.3    69  ILE69       0.0022
     58  CD1       75.9440   76.9210   70.6370 C.3    69  ILE69       0.0001
     59  N         75.4780   75.7610   78.8410 N.3    72  SER72      -0.1217
     60  CA        74.0330   75.9620   78.9760 C.3    72  SER72       0.1889
     61  C         73.2670   74.6420   79.0280 C.2    72  SER72       0.2288
     62  O         72.2290   74.5070   79.7120 O.2    72  SER72      -0.2866
     63  CB        73.5130   76.8850   77.8570 C.3    72  SER72       0.2089
     64  OG        73.5390   76.2660   76.5770 O.3    72  SER72      -0.2183
     65  N         71.4940   76.0590   74.5490 N.3   112  GLY112     -0.1210
     66  CA        71.7630   76.6910   73.2570 C.3   112  GLY112      0.1956
     67  C         71.6730   75.7800   72.0360 C.2   112  GLY112      0.2612
     68  O         71.6550   74.5450   72.1550 O.2   112  GLY112     -0.2717
     69  N         71.6250   76.4130   70.8680 N.am  113  PHE113     -0.1962
     70  CA        71.4880   75.7410   69.5630 C.3   113  PHE113      0.1771
     71  C         72.6600   75.9960   68.5800 C.2   113  PHE113      0.2619
     72  O         73.1900   75.0600   67.9420 O.2   113  PHE113     -0.2715
     73  CB        70.2210   76.2190   68.8270 C.3   113  PHE113      0.0574
     74  CG        68.9100   75.8360   69.4600 C.ar  113  PHE113     -0.0200
     75  CD1       68.7870   74.7840   70.3250 C.ar  113  PHE113     -0.0042
     76  CD2       67.7550   76.5220   69.0980 C.ar  113  PHE113     -0.0042
     77  CE1       67.5490   74.4410   70.8780 C.ar  113  PHE113     -0.0003
     78  CE2       66.4910   76.1720   69.6400 C.ar  113  PHE113     -0.0003
     79  CZ        66.4100   75.1410   70.5440 C.ar  113  PHE113     -0.0000
     80  N         73.0580   77.2420   68.4150 N.am  114  GLN114     -0.1964
     81  CA        73.8770   77.6140   67.2630 C.3   114  GLN114      0.1718
     82  C         74.7610   78.7900   67.5700 C.2   114  GLN114      0.2458
     83  O         74.2930   79.7360   68.1780 O.2   114  GLN114     -0.2730
     84  CB        72.9640   77.9830   66.0950 C.3   114  GLN114      0.0407
     85  CG        73.7080   78.3840   64.7910 C.3   114  GLN114      0.0908
     86  CD        72.7690   78.8040   63.6780 C.2   114  GLN114      0.2608
     87  OE1       72.3870   77.9920   62.8300 O.2   114  GLN114     -0.2717
     88  NE2       72.3830   80.0730   63.6740 N.am  114  GLN114     -0.0878
     89  N         76.0390   78.7680   67.1240 N.am  115  PRO115     -0.2727
     90  CA        76.8600   79.9630   67.3110 C.3   115  PRO115      0.1402
     91  C         76.2430   81.2690   66.7910 C.2   115  PRO115      0.2269
     92  O         75.4470   81.2900   65.8410 O.2   115  PRO115     -0.2865
     93  CB        78.1670   79.6220   66.5790 C.3   115  PRO115      0.0296
     94  CG        78.2330   78.1090   66.6180 C.3   115  PRO115      0.0237
     95  CD        76.7990   77.6690   66.4890 C.3   115  PRO115      0.0939
     96  N         74.4930   83.5840   68.5780 N.3   117  GLN117     -0.1231
     97  CA        73.2860   84.0530   69.2640 C.3   117  GLN117      0.1698
     98  C         73.3800   83.6980   70.7330 C.2   117  GLN117      0.2593
     99  O         74.3220   83.0280   71.1680 O.2   117  GLN117     -0.2718
    100  CB        72.0460   83.4090   68.6230 C.3   117  GLN117      0.0381
    101  CG        71.8850   81.9270   68.9550 C.3   117  GLN117      0.0905
    102  CD        71.0490   81.1570   67.9670 C.2   117  GLN117      0.2608
    103  OE1       71.0040   81.4800   66.7490 O.2   117  GLN117     -0.2717
    104  NE2       70.4190   80.0810   68.4510 N.am  117  GLN117     -0.0878
    105  N         72.4000   84.1620   71.5080 N.am  118  SER118     -0.1938
    106  CA        72.3270   83.8730   72.9320 C.3   118  SER118      0.2055
    107  C         71.1800   82.9020   73.2120 C.2   118  SER118      0.2643
    108  O         70.3760   82.5910   72.3380 O.2   118  SER118     -0.2714
    109  CB        72.0920   85.1710   73.7180 C.3   118  SER118      0.2130
    110  OG        70.7940   85.6660   73.4380 O.3   118  SER118     -0.2179
    111  N         71.0930   82.4590   74.4620 N.am  119  THR119     -0.1950
    112  CA        69.9500   81.6460   74.9110 C.3   119  THR119      0.1897
    113  C         68.6200   82.4270   74.9480 C.2   119  THR119      0.2313
    114  O         67.5620   81.8390   74.9340 O.2   119  THR119     -0.2863
    115  CB        70.2080   81.0250   76.2680 C.3   119  THR119      0.1794
    116  OG1       70.5940   82.0470   77.2060 O.3   119  THR119     -0.2208
    117  CG2       71.3230   79.9680   76.1540 C.3   119  THR119      0.0378
    118  N         67.2990   81.6230   71.5890 N.3   122  VAL122     -0.1245
    119  CA        66.7550   80.2740   71.6720 C.3   122  VAL122      0.1561
    120  C         65.3590   80.3110   72.2970 C.2   122  VAL122      0.2260
    121  O         64.4350   79.6780   71.8110 O.2   122  VAL122     -0.2867
    122  CB        67.6650   79.3330   72.4920 C.3   122  VAL122      0.0252
    123  CG1       66.9810   78.0010   72.7400 C.3   122  VAL122      0.0019
    124  CG2       69.0070   79.1470   71.7750 C.3   122  VAL122      0.0019
    125  N         72.8330   91.8950   75.9000 N.3   172  GLU172     -0.1245
    126  CA        72.3930   91.0310   76.9950 C.3   172  GLU172      0.1567
    127  C         70.8810   91.1040   77.0680 C.2   172  GLU172      0.2260
    128  O         70.2710   91.7480   76.2290 O.2   172  GLU172     -0.2867
    129  CB        73.0550   91.4610   78.3190 C.3   172  GLU172      0.0388
    130  CG        73.5490   90.2980   79.2020 C.3   172  GLU172      0.1160
    131  CD        74.5710   89.3800   78.4970 C.2   172  GLU172      0.3649
    132  OE1       74.6980   89.4570   77.2470 O.co2 172  GLU172     -0.2457
    133  OE2       75.2370   88.5660   79.1960 O.co2 172  GLU172     -0.2457
@<TRIPOS>BOND
     1    87    86    2
     2    88    86   am
     3    86    85    1
     4    85    84    1
     5    92    91    2
     6    84    81    1
     7    95    94    1
     8    95    89    1
     9    93    94    1
    10    93    90    1
    11   103   102    2
    12    91    90    1
    13    89    90    1
    14    89    82   am
    15    81    82    1
    16    81    80    1
    17    82    83    2
    18    72    71    2
    19   102   104   am
    20   102   101    1
    21    80    71   am
    22    96    97    1
    23    71    70    1
    24   100   101    1
    25   100    97    1
    26    46    44   ar
    27    73    74    1
    28    73    70    1
    29    76    74   ar
    30    76    78   ar
    31    97    98    1
    32    74    75   ar
    33    70    69    1
    34    78    79   ar
    35    44    43    1
    36    44    45   ar
    37    43    40    1
    38    75    77   ar
    39    79    77   ar
    40    58    56    1
    41    98    99    2
    42    98   105   am
    43    69    67   am
    44    39    40    1
    45    40    41    1
    46   105   106    1
    47   118   119    1
    48    41    42    2
    49   119   120    1
    50   119   122    1
    51   124   122    1
    52   121   120    2
    53    67    68    2
    54    67    66    1
    55    56    55    1
    56   108   107    2
    57   122   123    1
    58    57    55    1
    59    55    52    1
    60   106   107    1
    61   106   109    1
    62   107   111   am
    63    66    65    1
    64   110   109    1
    65    52    51    1
    66    52    53    1
    67   111   112    1
    68    51    49   am
    69   112   113    1
    70   112   115    1
    71   114   113    2
    72    47    48    1
    73    53    54    2
    74    37    35    1
    75    49    48    1
    76    49    50    2
    77   125   126    1
    78    36    38    1
    79    36    35    1
    80    34    33    2
    81   117   115    1
    82   128   127    2
    83   115   116    1
    84    35    32    1
    85    64    63    1
    86    32    33    1
    87    32    31    1
    88   126   127    1
    89   126   129    1
    90   132   131   ar
    91    63    60    1
    92   129   130    1
    93   131   133   ar
    94   131   130    1
    95    59    60    1
    96     7     6    1
    97     7     8    1
    98    60    61    1
    99     5     6    1
   100     5     2    1
   101     9     8    1
   102    29    28    2
   103    61    62    2
   104    30    27    1
   105    28    27    1
   106     2     1    1
   107     2     3    1
   108    27    26    1
   109    18    19    1
   110    18    16   am
   111    15    14    1
   112    15    16    1
   113    19    20    1
   114    16    17    2
   115     3     4    2
   116    20    22   am
   117    20    21    2
   118    22    23    1
   119    25    24    2
   120    23    24    1
   121    10    11    1
   122    11    12    1
   123    12    13    2
