@<TRIPOS>MOLECULE
tmp/2j4jD01.pdb
 189 180 0 0 0
SMALL
GASTEIGER

@<TRIPOS>ATOM
      1  N         62.8260   81.5690   80.0790 N.3     6  LYS6       -0.1245
      2  CA        64.2670   81.6800   79.9860 C.3     6  LYS6        0.1561
      3  C         64.8070   81.9750   81.3800 C.2     6  LYS6        0.2260
      4  O         64.4300   82.9690   81.9990 O.2     6  LYS6       -0.2867
      5  CB        64.6820   82.7720   78.9860 C.3     6  LYS6        0.0271
      6  CG        66.1180   83.3670   79.1540 C.3     6  LYS6        0.0035
      7  CD        67.2250   82.4020   78.8630 C.3     6  LYS6        0.0206
      8  CE        68.5280   82.7770   79.5310 C.3     6  LYS6        0.1093
      9  NZ        69.2340   83.9530   79.0030 N.3     6  LYS6       -0.1314
     10  N         68.0800   82.9240   83.3740 N.3     8  SER8       -0.1202
     11  CA        69.4250   83.4810   83.2880 C.3     8  SER8        0.2020
     12  C         70.4820   82.5080   83.8080 C.2     8  SER8        0.2619
     13  O         70.2310   81.7510   84.7490 O.2     8  SER8       -0.2717
     14  CB        69.4870   84.7790   84.1100 C.3     8  SER8        0.2103
     15  OG        70.7910   85.3230   84.1640 O.3     8  SER8       -0.2182
     16  N         71.6560   82.5180   83.1900 N.am    9  GLY9       -0.1942
     17  CA        72.7860   81.7040   83.6620 C.3     9  GLY9        0.2014
     18  C         73.2180   82.0890   85.0730 C.2     9  GLY9        0.2638
     19  O         73.7260   81.2750   85.8430 O.2     9  GLY9       -0.2714
     20  N         72.9990   83.3510   85.4200 N.am   10  LYS10      -0.1977
     21  CA        73.2610   83.8550   86.7740 C.3    10  LYS10       0.1596
     22  C         72.5110   83.1280   87.8860 C.2    10  LYS10       0.2287
     23  O         73.0110   83.0150   89.0120 O.2    10  LYS10      -0.2864
     24  CB        72.9890   85.3620   86.8090 C.3    10  LYS10       0.0298
     25  CG        74.0410   86.1200   85.9870 C.3    10  LYS10       0.0038
     26  CD        73.6090   87.5010   85.6370 C.3    10  LYS10       0.0206
     27  CE        74.6210   88.1990   84.7200 C.3    10  LYS10       0.1093
     28  NZ        74.5450   87.7250   83.3000 N.3    10  LYS10      -0.1314
     29  N         70.4370   79.5080   80.5870 N.3    42  GLY42      -0.1210
     30  CA        71.6650   80.1990   80.1850 C.3    42  GLY42       0.1956
     31  C         72.9270   79.4680   80.6460 C.2    42  GLY42       0.2612
     32  O         72.8790   78.5170   81.4200 O.2    42  GLY42      -0.2717
     33  N         74.0610   79.9100   80.1340 N.am   43  GLY43      -0.1942
     34  CA        75.3370   79.2260   80.3930 C.3    43  GLY43       0.2014
     35  C         76.0470   79.7240   81.6190 C.2    43  GLY43       0.2639
     36  O         76.7990   78.9730   82.2800 O.2    43  GLY43      -0.2714
     37  N         75.8230   80.9900   81.9380 N.am   44  GLY44      -0.1954
     38  CA        76.3240   81.5680   83.1860 C.3    44  GLY44       0.1869
     39  C         77.8250   81.6640   83.2460 C.2    44  GLY44       0.2309
     40  O         78.4680   81.8600   82.2420 O.2    44  GLY44      -0.2863
     41  N         80.0330   78.9240   81.4030 N.3    47  ALA47      -0.1231
     42  CA        80.2440   79.2730   80.0120 C.3    47  ALA47       0.1694
     43  C         81.3570   80.2850   79.8780 C.2    47  ALA47       0.2591
     44  O         82.2470   80.1410   79.0240 O.2    47  ALA47      -0.2718
     45  CB        78.9710   79.8190   79.3960 C.3    47  ALA47       0.0304
     46  N         81.3240   81.3140   80.7340 N.am   48  ARG48      -0.1980
     47  CA        82.3480   82.3550   80.7130 C.3    48  ARG48       0.1597
     48  C         83.7400   81.8180   81.0360 C.2    48  ARG48       0.2287
     49  O         84.7020   82.1510   80.3340 O.2    48  ARG48      -0.2864
     50  CB        81.9490   83.5250   81.6200 C.3    48  ARG48       0.0334
     51  CG        80.7820   84.3390   81.0290 C.3    48  ARG48       0.0492
     52  CD        80.4240   85.6010   81.8820 C.3    48  ARG48       0.2205
     53  NE        79.1090   85.4770   82.5250 N.pl3  48  ARG48      -0.0865
     54  CZ        78.8910   85.2080   83.8150 C.cat  48  ARG48       0.5346
     55  NH1       79.9050   85.0300   84.6720 N.pl3  48  ARG48       0.1354
     56  NH2       77.6310   85.0930   84.2570 N.pl3  48  ARG48       0.1354
     57  N         72.4000   84.1620   71.5080 N.3   118  SER118     -0.1202
     58  CA        72.3270   83.8730   72.9320 C.3   118  SER118      0.2020
     59  C         71.1800   82.9020   73.2120 C.2   118  SER118      0.2619
     60  O         70.3760   82.5910   72.3380 O.2   118  SER118     -0.2717
     61  CB        72.0920   85.1710   73.7180 C.3   118  SER118      0.2103
     62  OG        70.7940   85.6660   73.4380 O.3   118  SER118     -0.2182
     63  N         71.0930   82.4590   74.4620 N.am  119  THR119     -0.1952
     64  CA        69.9500   81.6460   74.9110 C.3   119  THR119      0.1897
     65  C         68.6200   82.4270   74.9480 C.2   119  THR119      0.2313
     66  O         67.5620   81.8390   74.9340 O.2   119  THR119     -0.2863
     67  CB        70.2080   81.0250   76.2680 C.3   119  THR119      0.1794
     68  OG1       70.5940   82.0470   77.2060 O.3   119  THR119     -0.2208
     69  CG2       71.3230   79.9680   76.1540 C.3   119  THR119      0.0378
     70  N         61.4780   86.1190   80.7390 N.3   137  VAL137     -0.1245
     71  CA        62.9130   86.1660   80.9440 C.3   137  VAL137      0.1561
     72  C         63.1720   86.4110   82.4360 C.2   137  VAL137      0.2260
     73  O         62.9750   87.5330   82.9350 O.2   137  VAL137     -0.2867
     74  CB        63.5630   87.2680   80.1000 C.3   137  VAL137      0.0252
     75  CG1       65.0310   87.3950   80.4010 C.3   137  VAL137      0.0019
     76  CG2       63.3470   87.0000   78.6380 C.3   137  VAL137      0.0019
     77  N         65.6120   86.8080   85.2660 N.3   139  THR139     -0.1203
     78  CA        66.9950   87.2170   85.3460 C.3   139  THR139      0.1994
     79  C         67.3280   87.8390   86.7260 C.2   139  THR139      0.2618
     80  O         66.5340   87.7600   87.6740 O.2   139  THR139     -0.2717
     81  CB        67.3530   88.1040   84.1180 C.3   139  THR139      0.1784
     82  OG1       68.7390   88.4480   84.1770 O.3   139  THR139     -0.2211
     83  CG2       66.4920   89.3670   84.0480 C.3   139  THR139      0.0376
     84  N         68.5300   88.3870   86.8550 N.am  140  ASN140     -0.1960
     85  CA        69.0180   88.8620   88.1540 C.3   140  ASN140      0.1819
     86  C         68.7500   90.3350   88.4230 C.2   140  ASN140      0.2621
     87  O         69.3940   90.9360   89.2890 O.2   140  ASN140     -0.2715
     88  CB        70.5090   88.5610   88.3280 C.3   140  ASN140      0.1195
     89  CG        71.4250   89.4760   87.5000 C.2   140  ASN140      0.2630
     90  OD1       70.9710   90.0690   86.5200 O.2   140  ASN140     -0.2716
     91  ND2       72.6790   89.6370   87.9080 N.am  140  ASN140     -0.0877
     92  N         67.7670   90.8800   87.7160 N.am  141  VAL141     -0.1977
     93  CA        67.3850   92.2910   87.7260 C.3   141  VAL141      0.1596
     94  C         65.8400   92.2810   87.6680 C.2   141  VAL141      0.2287
     95  O         65.2550   91.3550   87.0960 O.2   141  VAL141     -0.2864
     96  CB        68.0250   92.9640   86.4820 C.3   141  VAL141      0.0276
     97  CG1       67.0520   93.8620   85.7550 C.3   141  VAL141      0.0022
     98  CG2       69.3270   93.6770   86.8360 C.3   141  VAL141      0.0022
     99  N         63.5550   94.0340   86.1700 N.3   143  GLY143     -0.1210
    100  CA        62.9080   94.3640   84.9270 C.3   143  GLY143      0.1956
    101  C         63.8780   95.0670   84.0110 C.2   143  GLY143      0.2612
    102  O         65.0960   95.0190   84.1940 O.2   143  GLY143     -0.2717
    103  N         63.3330   95.7180   82.9980 N.am  144  VAL144     -0.1965
    104  CA        64.1340   96.5230   82.0820 C.3   144  VAL144      0.1727
    105  C         64.2640   97.9300   82.6940 C.2   144  VAL144      0.2616
    106  O         63.2780   98.4870   83.2010 O.2   144  VAL144     -0.2715
    107  CB        63.4530   96.6160   80.6880 C.3   144  VAL144      0.0290
    108  CG1       64.2280   97.5160   79.7590 C.3   144  VAL144      0.0023
    109  CG2       63.3130   95.2340   80.0700 C.3   144  VAL144      0.0023
    110  N         65.4820   98.4660   82.6220 N.am  145  TYR145     -0.1974
    111  CA        65.8480   99.7880   83.1260 C.3   145  TYR145      0.1639
    112  C         66.2830  100.6680   81.9600 C.2   145  TYR145      0.2290
    113  O         66.7200  100.1580   80.9150 O.2   145  TYR145     -0.2864
    114  CB        67.0140   99.6720   84.1210 C.3   145  TYR145      0.0560
    115  CG        66.5960   99.1190   85.4550 C.ar  145  TYR145     -0.0198
    116  CD1       66.1690   99.9570   86.4730 C.ar  145  TYR145     -0.0009
    117  CD2       66.5990   97.7570   85.6900 C.ar  145  TYR145     -0.0009
    118  CE1       65.7630   99.4450   87.7110 C.ar  145  TYR145      0.0417
    119  CE2       66.1990   97.2390   86.9050 C.ar  145  TYR145      0.0417
    120  CZ        65.7850   98.0880   87.9090 C.ar  145  TYR145      0.1957
    121  OH        65.3910   97.5510   89.1030 O.3   145  TYR145     -0.2866
    122  N         68.9010  102.2270   81.5310 N.3   147  LYS147     -0.1231
    123  CA        70.2310  101.7280   81.1380 C.3   147  LYS147      0.1693
    124  C         70.6400  100.5570   82.0400 C.2   147  LYS147      0.2592
    125  O         69.9950  100.2970   83.0660 O.2   147  LYS147     -0.2718
    126  CB        71.2770  102.8630   81.1680 C.3   147  LYS147      0.0285
    127  CG        72.4460  102.7310   80.1680 C.3   147  LYS147      0.0035
    128  CD        71.9810  102.4120   78.7330 C.3   147  LYS147      0.0206
    129  CE        72.9710  102.8860   77.6550 C.3   147  LYS147      0.1093
    130  NZ        72.4850  102.5800   76.2640 N.3   147  LYS147     -0.1314
    131  N         71.6820   99.8290   81.6240 N.am  148  ASP148     -0.1960
    132  CA        72.2300   98.7030   82.4030 C.3   148  ASP148      0.1825
    133  C         72.3060   99.1550   83.8630 C.2   148  ASP148      0.2464
    134  O         73.0330  100.0940   84.1630 O.2   148  ASP148     -0.2730
    135  CB        73.6260   98.3140   81.8550 C.3   148  ASP148      0.1450
    136  CG        74.1390   96.9450   82.3640 C.2   148  ASP148      0.3671
    137  OD1       73.9030   96.5730   83.5430 O.co2 148  ASP148     -0.2456
    138  OD2       74.8170   96.2520   81.5620 O.co2 148  ASP148     -0.2456
    139  N         71.5280   98.5210   84.7690 N.am  149  PRO149     -0.2715
    140  CA        71.5450   98.9150   86.1860 C.3   149  PRO149      0.1536
    141  C         72.7500   98.4070   86.9820 C.2   149  PRO149      0.2598
    142  O         72.9290   98.8330   88.1270 O.2   149  PRO149     -0.2715
    143  CB        70.2670   98.2840   86.7370 C.3   149  PRO149      0.0310
    144  CG        70.1120   97.0590   85.9420 C.3   149  PRO149      0.0237
    145  CD        70.5800   97.4170   84.5380 C.3   149  PRO149      0.0939
    146  N         73.5430   97.4930   86.4150 N.am  150  ARG150     -0.1978
    147  CA        74.7850   97.0570   87.0720 C.3   150  ARG150      0.1597
    148  C         75.9620   97.9800   86.7170 C.2   150  ARG150      0.2287
    149  O         77.0370   97.8670   87.3190 O.2   150  ARG150     -0.2864
    150  CB        75.1490   95.6040   86.7060 C.3   150  ARG150      0.0334
    151  CG        74.0800   94.5240   87.0040 C.3   150  ARG150      0.0492
    152  CD        73.5330   94.5680   88.4110 C.3   150  ARG150      0.2205
    153  NE        73.2630   93.2350   88.9620 N.pl3 150  ARG150     -0.0865
    154  CZ        72.4750   92.9980   90.0140 C.cat 150  ARG150      0.5346
    155  NH1       71.8380   93.9990   90.6300 N.pl3 150  ARG150      0.1354
    156  NH2       72.3070   91.7520   90.4550 N.pl3 150  ARG150      0.1354
    157  N         67.1330  101.1360   74.0190 N.3   169  ILE169     -0.1231
    158  CA        67.7400  100.9740   75.3460 C.3   169  ILE169      0.1692
    159  C         68.9900  100.0950   75.2780 C.2   169  ILE169      0.2591
    160  O         69.9980  100.3980   75.9280 O.2   169  ILE169     -0.2718
    161  CB        66.7280  100.3830   76.3670 C.3   169  ILE169      0.0266
    162  CG1       65.6760  101.4320   76.7370 C.3   169  ILE169      0.0019
    163  CG2       67.4300   99.9040   77.6330 C.3   169  ILE169      0.0020
    164  CD1       64.4300  100.8680   77.3880 C.3   169  ILE169      0.0001
    165  N         68.9240   99.0280   74.4800 N.am  170  LEU170     -0.1980
    166  CA        70.0420   98.0790   74.3310 C.3   170  LEU170      0.1596
    167  C         70.9710   98.4210   73.1470 C.2   170  LEU170      0.2287
    168  O         72.0460   97.8180   73.0120 O.2   170  LEU170     -0.2864
    169  CB        69.5090   96.6450   74.1770 C.3   170  LEU170      0.0297
    170  CG        68.6200   96.0990   75.3050 C.3   170  LEU170      0.0022
    171  CD1       68.0610   94.7360   74.9190 C.3   170  LEU170      0.0001
    172  CD2       69.3630   95.9980   76.6390 C.3   170  LEU170      0.0001
    173  N         72.8330   91.8950   75.9000 N.3   172  GLU172     -0.1231
    174  CA        72.3930   91.0310   76.9950 C.3   172  GLU172      0.1699
    175  C         70.8810   91.1040   77.0680 C.2   172  GLU172      0.2592
    176  O         70.2710   91.7480   76.2290 O.2   172  GLU172     -0.2718
    177  CB        73.0550   91.4610   78.3190 C.3   172  GLU172      0.0402
    178  CG        73.5490   90.2980   79.2020 C.3   172  GLU172      0.1161
    179  CD        74.5710   89.3800   78.4970 C.2   172  GLU172      0.3649
    180  OE1       74.6980   89.4570   77.2470 O.co2 172  GLU172     -0.2457
    181  OE2       75.2370   88.5660   79.1960 O.co2 172  GLU172     -0.2457
    182  N         70.2570   90.4380   78.0370 N.am  173  LEU173     -0.1980
    183  CA        68.7890   90.4320   78.1110 C.3   173  LEU173      0.1596
    184  C         68.1330   89.8010   76.8610 C.2   173  LEU173      0.2287
    185  O         67.6320   88.6800   76.9480 O.2   173  LEU173     -0.2864
    186  CB        68.2140   91.8480   78.3610 C.3   173  LEU173      0.0297
    187  CG        67.9120   92.3030   79.7970 C.3   173  LEU173      0.0022
    188  CD1       66.9780   93.5130   79.7500 C.3   173  LEU173      0.0001
    189  CD2       67.3030   91.2080   80.6660 C.3   173  LEU173      0.0001
@<TRIPOS>BOND
     1    57    58    1
     2    60    59    2
     3    58    59    1
     4    58    61    1
     5   168   167    2
     6   167   166    1
     7    59    63   am
     8    62    61    1
     9   157   158    1
    10   169   166    1
    11   169   170    1
    12   166   165    1
    13    63    64    1
    14   165   159   am
    15    64    65    1
    16    64    67    1
    17   171   170    1
    18    66    65    2
    19   159   158    1
    20   159   160    2
    21   170   172    1
    22   158   161    1
    23   173   174    1
    24    69    67    1
    25   176   175    2
    26   130   129    1
    27    67    68    1
    28   161   162    1
    29   161   163    1
    30   162   164    1
    31   184   185    2
    32   184   183    1
    33   174   175    1
    34   174   177    1
    35   175   182   am
    36   180   179   ar
    37   129   128    1
    38   182   183    1
    39   183   186    1
    40   177   178    1
    41   186   187    1
    42   179   181   ar
    43   179   178    1
    44    76    74    1
    45   128   127    1
    46     7     6    1
    47     7     8    1
    48     5     6    1
    49     5     2    1
    50     9     8    1
    51    44    43    2
    52    45    42    1
    53   188   187    1
    54   108   107    1
    55   187   189    1
    56    43    42    1
    57    43    46   am
    58     2     1    1
    59     2     3    1
    60    42    41    1
    61   109   107    1
    62    74    75    1
    63    74    71    1
    64    33    34    1
    65    33    31   am
    66   127   126    1
    67    30    29    1
    68    30    31    1
    69    49    48    2
    70    34    35    1
    71    31    32    2
    72   107   104    1
    73    47    46    1
    74    47    48    1
    75    47    50    1
    76    70    71    1
    77   113   112    2
    78    71    72    1
    79    51    50    1
    80    51    52    1
    81   123   126    1
    82   123   122    1
    83   123   124    1
    84     3     4    2
    85   138   136   ar
    86    35    37   am
    87    35    36    2
    88   131   124   am
    89   131   132    1
    90   135   136    1
    91   135   132    1
    92    52    53    1
    93    37    38    1
    94   112   111    1
    95   124   125    2
    96   104   105    1
    97   104   103    1
    98    40    39    2
    99   136   137   ar
   100   132   133    1
   101    72    73    2
   102    53    54    2
   103   110   105   am
   104   110   111    1
   105   105   106    2
   106   103   101   am
   107   111   114    1
   108    38    39    1
   109    16    17    1
   110    16    12   am
   111    11    10    1
   112    11    12    1
   113    11    14    1
   114    28    27    1
   115    17    18    1
   116    12    13    2
   117    54    56    1
   118    54    55    1
   119   133   134    2
   120   133   139   am
   121   101   102    2
   122   101   100    1
   123    83    81    1
   124    14    15    1
   125    81    82    1
   126    81    78    1
   127   114   115    1
   128   145   139    1
   129   145   144    1
   130    27    26    1
   131   139   140    1
   132   100    99    1
   133    18    20   am
   134    18    19    2
   135    77    78    1
   136    78    79    1
   137    20    21    1
   138   115   117   ar
   139   115   116   ar
   140    26    25    1
   141   117   119   ar
   142    97    96    1
   143   144   143    1
   144    25    24    1
   145   140   143    1
   146   140   141    1
   147   146   141   am
   148   146   147    1
   149   116   118   ar
   150    96    98    1
   151    96    93    1
   152    90    89    2
   153   150   151    1
   154   150   147    1
   155   148   147    1
   156   148   149    2
   157    79    84   am
   158    79    80    2
   159    21    24    1
   160    21    22    1
   161    84    85    1
   162   119   120   ar
   163   141   142    2
   164   151   152    1
   165    95    94    2
   166    89    91   am
   167    89    88    1
   168    94    93    1
   169   118   120   ar
   170    92    93    1
   171    92    86   am
   172    22    23    2
   173   120   121    1
   174    85    88    1
   175    85    86    1
   176   152   153    1
   177    86    87    2
   178   153   154    2
   179   154   156    1
   180   154   155    1
