@<TRIPOS>MOLECULE
tmp/2j4lH00.pdb
 176 167 0 0 0
SMALL
GASTEIGER

@<TRIPOS>ATOM
      1  N         15.9110   42.9320  -18.5650 N.3     6  LYS6       -0.1245
      2  CA        15.9380   41.6330  -17.9180 C.3     6  LYS6        0.1561
      3  C         15.2580   41.7710  -16.5650 C.2     6  LYS6        0.2260
      4  O         15.7870   42.4270  -15.6750 O.2     6  LYS6       -0.2867
      5  CB        17.3860   41.1900  -17.7280 C.3     6  LYS6        0.0271
      6  CG        17.5720   39.7120  -17.5190 C.3     6  LYS6        0.0035
      7  CD        16.8680   39.2130  -16.2940 C.3     6  LYS6        0.0206
      8  CE        17.2390   37.7700  -16.0590 C.3     6  LYS6        0.1093
      9  NZ        16.5090   37.1980  -14.9080 N.3     6  LYS6       -0.1314
     10  N         14.2130   40.2080  -13.1200 N.3     8  SER8       -0.1202
     11  CA        14.5960   39.1150  -12.2280 C.3     8  SER8        0.2020
     12  C         13.4330   38.1800  -11.9120 C.2     8  SER8        0.2619
     13  O         12.2770   38.5920  -11.8850 O.2     8  SER8       -0.2717
     14  CB        15.1740   39.6710  -10.9180 C.3     8  SER8        0.2103
     15  OG        15.4260   38.6300   -9.9820 O.3     8  SER8       -0.2182
     16  N         13.7560   36.9180  -11.6640 N.am    9  GLY9       -0.1942
     17  CA        12.7300   35.9410  -11.3590 C.3     9  GLY9        0.2014
     18  C         11.9570   36.2210  -10.0850 C.2     9  GLY9        0.2638
     19  O         10.7730   35.8760   -9.9890 O.2     9  GLY9       -0.2714
     20  N         12.6190   36.8430   -9.1080 N.am   10  LYS10      -0.1977
     21  CA        11.9930   37.1630   -7.8220 C.3    10  LYS10       0.1596
     22  C         10.8290   38.1300   -7.9770 C.2    10  LYS10       0.2287
     23  O          9.8960   38.1180   -7.1840 O.2    10  LYS10      -0.2864
     24  CB        13.0320   37.7570   -6.8790 C.3    10  LYS10       0.0298
     25  CG        14.2210   36.8400   -6.6590 C.3    10  LYS10       0.0038
     26  CD        15.3060   37.5260   -5.8450 C.3    10  LYS10       0.0206
     27  CE        16.5350   36.6360   -5.7020 C.3    10  LYS10       0.1093
     28  NZ        17.6380   37.3350   -4.9790 N.3    10  LYS10      -0.1314
     29  N         12.9550   35.8930  -15.7480 N.3    20  GLY20      -0.1210
     30  CA        13.5520   34.7410  -15.1040 C.3    20  GLY20       0.1956
     31  C         12.5210   33.7780  -14.5400 C.2    20  GLY20       0.2612
     32  O         11.3320   34.1090  -14.4370 O.2    20  GLY20      -0.2717
     33  N         12.9850   32.5880  -14.1650 N.am   21  GLY21      -0.1942
     34  CA        12.1070   31.5650  -13.6300 C.3    21  GLY21       0.2014
     35  C         11.5990   31.7790  -12.2170 C.2    21  GLY21       0.2639
     36  O         10.5020   31.3200  -11.8780 O.2    21  GLY21      -0.2714
     37  N         12.3900   32.4540  -11.3810 N.am   22  GLY22      -0.1954
     38  CA        11.9730   32.7080  -10.0090 C.3    22  GLY22       0.1869
     39  C         11.7440   31.4590   -9.1710 C.2    22  GLY22       0.2309
     40  O         12.2630   30.3770   -9.4720 O.2    22  GLY22      -0.2863
     41  N         10.5010   28.2560  -10.8160 N.3    25  ALA25      -0.1231
     42  CA        11.6040   27.5180  -11.4070 C.3    25  ALA25       0.1694
     43  C         12.2650   26.6700  -10.3330 C.2    25  ALA25       0.2591
     44  O         12.3810   25.4480  -10.4710 O.2    25  ALA25      -0.2718
     45  CB        12.6100   28.4870  -11.9990 C.3    25  ALA25       0.0304
     46  N         12.6620   27.3450   -9.2520 N.am   26  ARG26      -0.1980
     47  CA        13.3390   26.7330   -8.1100 C.3    26  ARG26       0.1597
     48  C         12.5920   25.5620   -7.4920 C.2    26  ARG26       0.2287
     49  O         13.1930   24.5270   -7.1700 O.2    26  ARG26      -0.2864
     50  CB        13.5890   27.7920   -7.0360 C.3    26  ARG26       0.0334
     51  CG        14.2640   29.0350   -7.5810 C.3    26  ARG26       0.0492
     52  CD        14.6180   30.0560   -6.5080 C.3    26  ARG26       0.2205
     53  NE        15.0630   31.2990   -7.1350 N.pl3  26  ARG26      -0.0865
     54  CZ        15.8310   32.2150   -6.5550 C.cat  26  ARG26       0.5346
     55  NH1       16.2580   32.0360   -5.3110 N.pl3  26  ARG26       0.1354
     56  NH2       16.1820   33.3090   -7.2310 N.pl3  26  ARG26       0.1354
     57  N         12.7490   22.5370  -10.1150 N.3    29  ILE29      -0.1245
     58  CA        14.0820   21.9580  -10.2640 C.3    29  ILE29       0.1561
     59  C         14.3870   21.1170   -9.0410 C.2    29  ILE29       0.2260
     60  O         14.9580   20.0240   -9.1310 O.2    29  ILE29      -0.2867
     61  CB        15.1610   23.0350  -10.3670 C.3    29  ILE29       0.0252
     62  CG1       14.8640   23.9560  -11.5540 C.3    29  ILE29       0.0019
     63  CG2       16.5210   22.3710  -10.5210 C.3    29  ILE29       0.0019
     64  CD1       15.8500   25.0900  -11.7250 C.3    29  ILE29       0.0001
     65  N         17.2070   21.9510  -16.1170 N.3    43  ASP43      -0.1239
     66  CA        17.3310   23.2590  -16.7300 C.3    43  ASP43       0.1674
     67  C         16.0800   23.5630  -17.5430 C.2    43  ASP43       0.2266
     68  O         15.5470   24.6790  -17.4920 O.2    43  ASP43      -0.2867
     69  CB        18.5630   23.3270  -17.6360 C.3    43  ASP43       0.1410
     70  CG        19.8580   23.3950  -16.8540 C.2    43  ASP43       0.3668
     71  OD1       19.7970   23.6290  -15.6330 O.co2  43  ASP43      -0.2456
     72  OD2       20.9360   23.2260  -17.4570 O.co2  43  ASP43      -0.2456
     73  N         13.3090   24.7210  -15.5140 N.3    46  GLY46      -0.1210
     74  CA        13.5360   26.1050  -15.1410 C.3    46  GLY46       0.1956
     75  C         13.1720   27.0240  -16.2870 C.2    46  GLY46       0.2611
     76  O         12.5440   28.0690  -16.1050 O.2    46  GLY46      -0.2717
     77  N         13.5720   26.6170  -17.4860 N.am   47  ILE47      -0.1979
     78  CA        13.2900   27.3870  -18.6910 C.3    47  ILE47       0.1595
     79  C         11.7850   27.5480  -18.8640 C.2    47  ILE47       0.2287
     80  O         11.2940   28.6470  -19.1420 O.2    47  ILE47      -0.2864
     81  CB        13.8490   26.6940  -19.9470 C.3    47  ILE47       0.0276
     82  CG1       15.3590   26.5720  -19.8500 C.3    47  ILE47       0.0022
     83  CG2       13.5130   27.5070  -21.1840 C.3    47  ILE47       0.0022
     84  CD1       15.9910   25.9920  -21.1050 C.3    47  ILE47       0.0001
     85  N         10.3640   29.9620  -16.4940 N.3    50  SER50      -0.1217
     86  CA        10.6720   31.3280  -16.8980 C.3    50  SER50       0.1889
     87  C          9.7230   31.7910  -18.0110 C.2    50  SER50       0.2288
     88  O          9.3730   32.9700  -18.0920 O.2    50  SER50      -0.2866
     89  CB        12.1280   31.4280  -17.3640 C.3    50  SER50       0.2089
     90  OG        12.3620   30.6380  -18.5170 O.3    50  SER50      -0.2183
     91  N         13.7640   31.2880  -21.0220 N.3    90  GLY90      -0.1210
     92  CA        15.0000   30.5820  -21.3170 C.3    90  GLY90       0.1956
     93  C         15.0950   30.0500  -22.7370 C.2    90  GLY90       0.2612
     94  O         14.0850   29.9510  -23.4420 O.2    90  GLY90      -0.2717
     95  N         16.3160   29.7150  -23.1540 N.am   91  PHE91      -0.1962
     96  CA        16.5840   29.1750  -24.4860 C.3    91  PHE91       0.1771
     97  C         17.2120   27.8060  -24.4100 C.2    91  PHE91       0.2619
     98  O         16.6390   26.8080  -24.8380 O.2    91  PHE91      -0.2715
     99  CB        17.5780   30.0330  -25.2630 C.3    91  PHE91       0.0574
    100  CG        17.0420   31.3540  -25.7080 C.ar   91  PHE91      -0.0200
    101  CD1       15.6840   31.5480  -25.9170 C.ar   91  PHE91      -0.0042
    102  CD2       17.9160   32.3990  -25.9800 C.ar   91  PHE91      -0.0042
    103  CE1       15.2070   32.7620  -26.3900 C.ar   91  PHE91      -0.0003
    104  CE2       17.4490   33.6170  -26.4540 C.ar   91  PHE91      -0.0003
    105  CZ        16.0920   33.8010  -26.6600 C.ar   91  PHE91      -0.0000
    106  N         18.4140   27.7790  -23.8580 N.am   92  GLN92      -0.1964
    107  CA        19.1920   26.5590  -23.7780 C.3    92  GLN92       0.1718
    108  C         19.7370   26.2300  -22.3920 C.2    92  GLN92       0.2458
    109  O         20.0380   27.1240  -21.6000 O.2    92  GLN92      -0.2730
    110  CB        20.3480   26.6880  -24.7720 C.3    92  GLN92       0.0407
    111  CG        21.2950   25.5120  -24.8730 C.3    92  GLN92       0.0908
    112  CD        22.4780   25.8340  -25.7720 C.2    92  GLN92       0.2608
    113  OE1       23.3020   26.7100  -25.4690 O.2    92  GLN92      -0.2717
    114  NE2       22.5600   25.1360  -26.8950 N.am   92  GLN92      -0.0878
    115  N         19.8580   24.9300  -22.0820 N.am   93  PRO93      -0.2716
    116  CA        20.3800   24.4850  -20.7880 C.3    93  PRO93       0.1536
    117  C         21.8080   24.9990  -20.5630 C.2    93  PRO93       0.2599
    118  O         22.4700   25.4840  -21.4900 O.2    93  PRO93      -0.2715
    119  CB        20.3270   22.9640  -20.9100 C.3    93  PRO93       0.0310
    120  CG        19.0910   22.7600  -21.7040 C.3    93  PRO93       0.0237
    121  CD        19.2330   23.8030  -22.8020 C.3    93  PRO93       0.0939
    122  N         22.2750   24.9040  -19.3210 N.am   94  GLY94      -0.1941
    123  CA        23.6200   25.3380  -19.0010 C.3    94  GLY94       0.2014
    124  C         23.8430   26.8340  -18.9000 C.2    94  GLY94       0.2639
    125  O         24.9870   27.2700  -18.8350 O.2    94  GLY94      -0.2714
    126  N         22.7850   27.6300  -18.8910 N.am   95  GLN95      -0.1963
    127  CA        22.9640   29.0720  -18.7670 C.3    95  GLN95       0.1733
    128  C         21.7990   29.6650  -17.9920 C.2    95  GLN95       0.2617
    129  O         21.0180   28.9330  -17.4040 O.2    95  GLN95      -0.2715
    130  CB        23.0790   29.7250  -20.1430 C.3    95  GLN95       0.0408
    131  CG        21.7630   29.9850  -20.8260 C.3    95  GLN95       0.0908
    132  CD        21.8700   29.9200  -22.3400 C.2    95  GLN95       0.2608
    133  OE1       20.9890   30.4190  -23.0490 O.2    95  GLN95      -0.2717
    134  NE2       22.9420   29.2930  -22.8460 N.am   95  GLN95      -0.0878
    135  N         21.6850   30.9860  -17.9740 N.am   96  SER96      -0.1936
    136  CA        20.6010   31.6310  -17.2450 C.3    96  SER96       0.2055
    137  C         19.9420   32.6720  -18.1370 C.2    96  SER96       0.2644
    138  O         20.4540   33.0020  -19.2080 O.2    96  SER96      -0.2714
    139  CB        21.1420   32.3230  -15.9920 C.3    96  SER96       0.2130
    140  OG        21.7980   33.5380  -16.3320 O.3    96  SER96      -0.2179
    141  N         18.8110   33.1960  -17.6880 N.am   97  THR97      -0.1936
    142  CA        18.1160   34.2150  -18.4580 C.3    97  THR97       0.2028
    143  C         19.0100   35.4430  -18.6230 C.2    97  THR97       0.2642
    144  O         18.7220   36.3310  -19.4240 O.2    97  THR97      -0.2714
    145  CB        16.8010   34.6220  -17.7740 C.3    97  THR97       0.1808
    146  OG1       17.0540   34.8960  -16.3880 O.3    97  THR97      -0.2208
    147  CG2       15.7670   33.4950  -17.8940 C.3    97  THR97       0.0379
    148  N         20.0920   35.4980  -17.8540 N.am   98  ALA98      -0.1977
    149  CA        21.0260   36.6100  -17.9650 C.3    98  ALA98       0.1597
    150  C         21.7110   36.4320  -19.3200 C.2    98  ALA98       0.2287
    151  O         21.8380   37.3730  -20.1130 O.2    98  ALA98      -0.2864
    152  CB        22.0460   36.5450  -16.8480 C.3    98  ALA98       0.0319
    153  N         20.6090   34.7500  -21.8480 N.3   100  VAL100     -0.1245
    154  CA        19.5760   35.0250  -22.8330 C.3   100  VAL100      0.1561
    155  C         19.4160   36.5220  -23.0590 C.2   100  VAL100      0.2260
    156  O         19.4090   36.9840  -24.1970 O.2   100  VAL100     -0.2867
    157  CB        18.2130   34.4290  -22.3960 C.3   100  VAL100      0.0252
    158  CG1       17.1120   34.9190  -23.3030 C.3   100  VAL100      0.0019
    159  CG2       18.2670   32.9110  -22.4320 C.3   100  VAL100      0.0019
    160  N         25.5740   33.8120  -10.9180 N.3   127  GLU127     -0.1231
    161  CA        24.9860   35.0320  -10.3680 C.3   127  GLU127      0.1699
    162  C         24.7990   36.0920  -11.4560 C.2   127  GLU127      0.2592
    163  O         25.0610   35.8240  -12.6310 O.2   127  GLU127     -0.2718
    164  CB        25.8690   35.5800   -9.2370 C.3   127  GLU127      0.0402
    165  CG        25.3140   36.8160   -8.5060 C.3   127  GLU127      0.1161
    166  CD        23.8930   36.6240   -7.9740 C.2   127  GLU127      0.3649
    167  OE1       23.6420   35.6070   -7.2890 O.co2 127  GLU127     -0.2457
    168  OE2       23.0340   37.4980   -8.2370 O.co2 127  GLU127     -0.2457
    169  N         24.3500   37.2830  -11.0510 N.am  128  LEU128     -0.1980
    170  CA        24.0890   38.4060  -11.9530 C.3   128  LEU128      0.1596
    171  C         24.2970   38.0770  -13.4350 C.2   128  LEU128      0.2287
    172  O         23.3320   37.7800  -14.1390 O.2   128  LEU128     -0.2864
    173  CB        24.9350   39.6190  -11.5510 C.3   128  LEU128      0.0297
    174  CG        24.2330   40.9680  -11.7690 C.3   128  LEU128      0.0022
    175  CD1       25.0350   42.1010  -11.1510 C.3   128  LEU128      0.0001
    176  CD2       24.0350   41.1990  -13.2540 C.3   128  LEU128      0.0001
@<TRIPOS>BOND
     1   114   112   am
     2   105   104   ar
     3   105   103   ar
     4   104   102   ar
     5   103   101   ar
     6   102   100   ar
     7   101   100   ar
     8   112   113    2
     9   112   111    1
    10   100    99    1
    11    99    96    1
    12   111   110    1
    13    98    97    2
    14   110   107    1
    15    96    97    1
    16    96    95    1
    17    97   106   am
    18   156   155    2
    19   106   107    1
    20   107   108    1
    21    94    93    2
    22   158   157    1
    23    95    93   am
    24   155   154    1
    25   133   132    2
    26   134   132   am
    27   154   157    1
    28   154   153    1
    29   121   115    1
    30   121   120    1
    31    93    92    1
    32   159   157    1
    33   108   115   am
    34   108   109    2
    35   132   131    1
    36   115   116    1
    37   120   119    1
    38   118   117    2
    39    92    91    1
    40    83    81    1
    41    84    82    1
    42   119   116    1
    43   131   130    1
    44   116   117    1
    45   117   122   am
    46   130   127    1
    47   151   150    2
    48    81    82    1
    49    81    78    1
    50   144   143    2
    51   122   123    1
    52   150   149    1
    53   138   137    2
    54    80    79    2
    55   123   124    1
    56   124   126   am
    57   124   125    2
    58   126   127    1
    59    79    78    1
    60   127   128    1
    61    78    77    1
    62   143   142    1
    63   143   148   am
    64     1     2    1
    65    90    89    1
    66   142   145    1
    67   142   141    1
    68   137   141   am
    69   137   136    1
    70    88    87    2
    71    87    86    1
    72   128   135   am
    73   128   129    2
    74   135   136    1
    75   149   148    1
    76   149   152    1
    77     2     5    1
    78     2     3    1
    79   147   145    1
    80   145   146    1
    81     5     6    1
    82    69    70    1
    83    69    66    1
    84    67    68    2
    85    67    66    1
    86     6     7    1
    87    77    75   am
    88    72    70   ar
    89    89    86    1
    90   136   139    1
    91    86    85    1
    92    70    71   ar
    93    66    65    1
    94     3     4    2
    95   140   139    1
    96     7     8    1
    97    75    76    2
    98    75    74    1
    99     8     9    1
   100    29    30    1
   101    73    74    1
   102    30    31    1
   103    31    32    2
   104    31    33   am
   105    33    34    1
   106   172   171    2
   107    34    35    1
   108   171   170    1
   109   176   174    1
   110    10    11    1
   111   163   162    2
   112    11    12    1
   113    11    14    1
   114    35    36    2
   115    35    37   am
   116    45    42    1
   117   170   173    1
   118   170   169    1
   119    12    13    2
   120    12    16   am
   121   174   173    1
   122   174   175    1
   123    64    62    1
   124    16    17    1
   125    62    61    1
   126   162   169   am
   127   162   161    1
   128    42    41    1
   129    42    43    1
   130    37    38    1
   131    17    18    1
   132    14    15    1
   133   160   161    1
   134    63    61    1
   135    44    43    2
   136   161   164    1
   137    61    58    1
   138    43    46   am
   139    58    57    1
   140    58    59    1
   141    18    19    2
   142    18    20   am
   143    38    39    1
   144    40    39    2
   145    46    47    1
   146   164   165    1
   147    60    59    2
   148    20    21    1
   149   165   166    1
   150   168   166   ar
   151    47    48    1
   152    47    50    1
   153    22    21    1
   154    22    23    2
   155   166   167   ar
   156    21    24    1
   157    51    50    1
   158    51    52    1
   159    48    49    2
   160    56    54    1
   161    53    54    2
   162    53    52    1
   163    24    25    1
   164    25    26    1
   165    54    55    1
   166    26    27    1
   167    27    28    1
