@<TRIPOS>MOLECULE
tmp/2j4lG00.pdb
 190 179 0 0 0
SMALL
GASTEIGER

@<TRIPOS>ATOM
      1  N         -5.8750   11.0590  -15.7710 N.3     6  LYS6       -0.1245
      2  CA        -5.9690   12.4760  -15.4760 C.3     6  LYS6        0.1561
      3  C         -5.4990   12.7120  -14.0410 C.2     6  LYS6        0.2260
      4  O         -6.1810   12.3540  -13.0900 O.2     6  LYS6       -0.2867
      5  CB        -7.4110   12.9310  -15.6260 C.3     6  LYS6        0.0271
      6  CG        -7.5830   14.4210  -15.8150 C.3     6  LYS6        0.0035
      7  CD        -7.0170   15.2190  -14.6760 C.3     6  LYS6        0.0206
      8  CE        -7.3770   16.6690  -14.8470 C.3     6  LYS6        0.1093
      9  NZ        -6.7380   17.5230  -13.8170 N.3     6  LYS6       -0.1314
     10  N         -4.8820   15.0960  -11.0440 N.3     8  SER8       -0.1202
     11  CA        -5.3560   16.3700  -10.5200 C.3     8  SER8        0.2020
     12  C         -4.2150   17.3640  -10.3200 C.2     8  SER8        0.2619
     13  O         -3.0760   16.9750  -10.0630 O.2     8  SER8       -0.2717
     14  CB        -6.0950   16.1320   -9.1960 C.3     8  SER8        0.2103
     15  OG        -6.5380   17.3490   -8.6200 O.3     8  SER8       -0.2182
     16  N         -4.5240   18.6510  -10.4380 N.am    9  GLY9       -0.1942
     17  CA        -3.5060   19.6750  -10.2670 C.3     9  GLY9        0.2014
     18  C         -2.9080   19.7390   -8.8730 C.2     9  GLY9        0.2638
     19  O         -1.7420   20.1010   -8.7170 O.2     9  GLY9       -0.2714
     20  N         -3.7030   19.3900   -7.8610 N.am   10  LYS10      -0.1977
     21  CA        -3.2590   19.4110   -6.4640 C.3    10  LYS10       0.1596
     22  C         -2.1030   18.4570   -6.2190 C.2    10  LYS10       0.2287
     23  O         -1.2780   18.6970   -5.3460 O.2    10  LYS10      -0.2864
     24  CB        -4.4210   19.0510   -5.5330 C.3    10  LYS10       0.0298
     25  CG        -5.6180   19.9750   -5.6850 C.3    10  LYS10       0.0038
     26  CD        -6.8110   19.4890   -4.8840 C.3    10  LYS10       0.0206
     27  CE        -8.0260   20.3690   -5.1410 C.3    10  LYS10       0.1093
     28  NZ        -9.2390   19.8780   -4.4190 N.3    10  LYS10      -0.1314
     29  N         -3.1790   18.5850  -14.4920 N.3    40  GLY40      -0.1210
     30  CA        -3.8270   19.8500  -14.2150 C.3    40  GLY40       0.1956
     31  C         -2.8510   20.9480  -13.8190 C.2    40  GLY40       0.2612
     32  O         -1.6820   20.6800  -13.5630 O.2    40  GLY40      -0.2717
     33  N         -3.3430   22.1880  -13.7770 N.am   41  GLY41      -0.1942
     34  CA        -2.5240   23.3380  -13.4280 C.3    41  GLY41       0.2014
     35  C         -2.2420   23.5090  -11.9440 C.2    41  GLY41       0.2639
     36  O         -1.1960   24.0540  -11.5640 O.2    41  GLY41      -0.2714
     37  N         -3.1650   23.0510  -11.1000 N.am   42  GLY42      -0.1954
     38  CA        -2.9780   23.1590   -9.6610 C.3    42  GLY42       0.1869
     39  C         -2.8160   24.5750   -9.1290 C.2    42  GLY42       0.2309
     40  O         -3.2710   25.5540   -9.7370 O.2    42  GLY42      -0.2863
     41  N         -1.2760   27.2680  -11.3050 N.3    45  ALA45      -0.1231
     42  CA        -2.2710   27.8010  -12.2170 C.3    45  ALA45       0.1694
     43  C         -3.0800   28.9030  -11.5640 C.2    45  ALA45       0.2591
     44  O         -3.0190   30.0610  -11.9830 O.2    45  ALA45      -0.2718
     45  CB        -3.1900   26.6900  -12.6750 C.3    45  ALA45       0.0304
     46  N         -3.8460   28.5320  -10.5420 N.am   46  ARG46      -0.1980
     47  CA        -4.6840   29.4910   -9.8280 C.3    46  ARG46       0.1597
     48  C         -3.9040   30.7440   -9.4150 C.2    46  ARG46       0.2287
     49  O         -4.3760   31.8800   -9.5790 O.2    46  ARG46      -0.2864
     50  CB        -5.3180   28.8180   -8.6000 C.3    46  ARG46       0.0334
     51  CG        -6.5460   27.9700   -8.9440 C.3    46  ARG46       0.0492
     52  CD        -7.2810   27.4070   -7.7230 C.3    46  ARG46       0.2205
     53  NE        -6.7560   26.1090   -7.2870 N.pl3  46  ARG46      -0.0865
     54  CZ        -5.8680   25.9410   -6.3080 C.cat  46  ARG46       0.5346
     55  NH1       -5.3990   26.9960   -5.6480 N.pl3  46  ARG46       0.1354
     56  NH2       -5.4460   24.7180   -5.9930 N.pl3  46  ARG46       0.1354
     57  N         -3.4210   33.1180  -12.3280 N.3    49  ILE49      -0.1245
     58  CA        -4.6940   33.6290  -12.8310 C.3    49  ILE49       0.1561
     59  C         -5.1340   34.7580  -11.9140 C.2    49  ILE49       0.2260
     60  O         -5.6010   35.8070  -12.3750 O.2    49  ILE49      -0.2867
     61  CB        -5.8000   32.5510  -12.8320 C.3    49  ILE49       0.0252
     62  CG1       -5.2970   31.2730  -13.5040 C.3    49  ILE49       0.0019
     63  CG2       -7.0250   33.0830  -13.5680 C.3    49  ILE49       0.0019
     64  CD1       -6.2700   30.1110  -13.4320 C.3    49  ILE49       0.0001
     65  N         -7.0590   31.9400  -18.8790 N.3    63  ASP63      -0.1239
     66  CA        -7.1330   30.5120  -19.1490 C.3    63  ASP63       0.1674
     67  C         -5.7970   30.0290  -19.6810 C.2    63  ASP63       0.2266
     68  O         -5.2860   28.9930  -19.2440 O.2    63  ASP63      -0.2867
     69  CB        -8.2320   30.1970  -20.1630 C.3    63  ASP63       0.1410
     70  CG        -9.6310   30.3480  -19.5800 C.2    63  ASP63       0.3668
     71  OD1       -9.7670   30.3700  -18.3400 O.co2  63  ASP63      -0.2456
     72  OD2      -10.6040   30.4330  -20.3610 O.co2  63  ASP63      -0.2456
     73  N         -3.3410   29.4310  -17.1310 N.3    66  GLY66      -0.1210
     74  CA        -3.6400   28.2010  -16.4290 C.3    66  GLY66       0.1956
     75  C         -3.1760   27.0290  -17.2670 C.2    66  GLY66       0.2611
     76  O         -2.6750   26.0270  -16.7480 O.2    66  GLY66      -0.2717
     77  N         -3.3360   27.1630  -18.5800 N.am   67  ILE67      -0.1979
     78  CA        -2.9310   26.1050  -19.4960 C.3    67  ILE67       0.1595
     79  C         -1.4240   25.8870  -19.4340 C.2    67  ILE67       0.2287
     80  O         -0.9430   24.7490  -19.3640 O.2    67  ILE67      -0.2864
     81  CB        -3.3420   26.4350  -20.9480 C.3    67  ILE67       0.0276
     82  CG1       -4.8670   26.5180  -21.0460 C.3    67  ILE67       0.0022
     83  CG2       -2.8330   25.3490  -21.8970 C.3    67  ILE67       0.0022
     84  CD1       -5.3850   26.7800  -22.4480 C.3    67  ILE67       0.0001
     85  N         -0.3810   24.1820  -16.3870 N.3    70  SER70      -0.1217
     86  CA        -0.6770   22.7550  -16.4770 C.3    70  SER70       0.1889
     87  C          0.3720   22.0210  -17.3090 C.2    70  SER70       0.2288
     88  O          0.6480   20.8440  -17.0780 O.2    70  SER70      -0.2866
     89  CB        -2.0550   22.5390  -17.0920 C.3    70  SER70       0.2089
     90  OG        -2.0820   22.9880  -18.4350 O.3    70  SER70      -0.2183
     91  N         -3.1770   21.7290  -20.7940 N.3   110  GLY110     -0.1210
     92  CA        -4.3500   22.3270  -21.4140 C.3   110  GLY110      0.1956
     93  C         -4.2520   22.4460  -22.9320 C.2   110  GLY110      0.2612
     94  O         -3.1560   22.2980  -23.5010 O.2   110  GLY110     -0.2717
     95  N         -5.3960   22.7030  -23.5770 N.am  111  PHE111     -0.1962
     96  CA        -5.4910   22.8630  -25.0290 C.3   111  PHE111      0.1771
     97  C         -6.0930   24.2070  -25.3860 C.2   111  PHE111      0.2619
     98  O         -5.4490   25.0810  -25.9640 O.2   111  PHE111     -0.2715
     99  CB        -6.4110   21.8140  -25.6600 C.3   111  PHE111      0.0574
    100  CG        -5.8520   20.4250  -25.6930 C.ar  111  PHE111     -0.0200
    101  CD1       -4.4820   20.2000  -25.6790 C.ar  111  PHE111     -0.0042
    102  CD2       -6.7110   19.3330  -25.8060 C.ar  111  PHE111     -0.0042
    103  CE1       -3.9800   18.9060  -25.7790 C.ar  111  PHE111     -0.0003
    104  CE2       -6.2210   18.0320  -25.9080 C.ar  111  PHE111     -0.0003
    105  CZ        -4.8560   17.8140  -25.8940 C.ar  111  PHE111     -0.0000
    106  N         -7.3560   24.3580  -25.0330 N.am  112  GLN112     -0.1964
    107  CA        -8.1000   25.5570  -25.3610 C.3   112  GLN112      0.1718
    108  C         -8.8190   26.2020  -24.1760 C.2   112  GLN112      0.2458
    109  O         -9.2330   25.5200  -23.2310 O.2   112  GLN112     -0.2730
    110  CB        -9.1120   25.1730  -26.4390 C.3   112  GLN112      0.0407
    111  CG       -10.0920   26.2370  -26.8750 C.3   112  GLN112      0.0908
    112  CD       -11.1250   25.6570  -27.8160 C.2   112  GLN112      0.2608
    113  OE1      -11.9950   24.8860  -27.4020 O.2   112  GLN112     -0.2717
    114  NE2      -11.0200   26.0000  -29.0950 N.am  112  GLN112     -0.0878
    115  N         -8.9640   27.5380  -24.2100 N.am  113  PRO113     -0.2716
    116  CA        -9.6440   28.2900  -23.1500 C.3   113  PRO113      0.1536
    117  C        -11.0990   27.8490  -23.0140 C.2   113  PRO113      0.2599
    118  O        -11.6370   27.1940  -23.9070 O.2   113  PRO113     -0.2715
    119  CB        -9.5290   29.7340  -23.6250 C.3   113  PRO113      0.0310
    120  CG        -8.1980   29.7360  -24.2820 C.3   113  PRO113      0.0237
    121  CD        -8.2190   28.4530  -25.0940 C.3   113  PRO113      0.0939
    122  N        -11.7230   28.1980  -21.8920 N.am  114  GLY114     -0.1941
    123  CA       -13.1140   27.8450  -21.6610 C.3   114  GLY114      0.2014
    124  C        -13.4010   26.4240  -21.1950 C.2   114  GLY114      0.2639
    125  O        -14.5610   26.0190  -21.1600 O.2   114  GLY114     -0.2714
    126  N        -12.3810   25.6560  -20.8380 N.am  115  GLN115     -0.1963
    127  CA       -12.6200   24.2960  -20.3690 C.3   115  GLN115      0.1733
    128  C        -11.5670   23.9340  -19.3290 C.2   115  GLN115      0.2617
    129  O        -10.8260   24.7970  -18.8660 O.2   115  GLN115     -0.2715
    130  CB       -12.5520   23.3190  -21.5420 C.3   115  GLN115      0.0408
    131  CG       -11.1410   22.9660  -21.9830 C.3   115  GLN115      0.0908
    132  CD       -11.0460   22.6150  -23.4510 C.2   115  GLN115      0.2608
    133  OE1      -10.1070   21.9450  -23.8700 O.2   115  GLN115     -0.2717
    134  NE2      -12.0080   23.0800  -24.2460 N.am  115  GLN115     -0.0878
    135  N        -11.4950   22.6610  -18.9650 N.am  116  SER116     -0.1936
    136  CA       -10.5100   22.2190  -17.9800 C.3   116  SER116      0.2055
    137  C         -9.7520   21.0130  -18.4960 C.2   116  SER116      0.2644
    138  O        -10.1100   20.4200  -19.5150 O.2   116  SER116     -0.2714
    139  CB       -11.1900   21.8090  -16.6900 C.3   116  SER116      0.2130
    140  OG       -11.7410   20.5170  -16.8450 O.3   116  SER116     -0.2179
    141  N         -8.7040   20.6380  -17.7810 N.am  117  THR117     -0.1936
    142  CA        -7.9330   19.4830  -18.1830 C.3   117  THR117      0.2028
    143  C         -8.8220   18.2400  -18.1500 C.2   117  THR117      0.2642
    144  O         -8.4590   17.1920  -18.6850 O.2   117  THR117     -0.2714
    145  CB        -6.7010   19.2870  -17.2720 C.3   117  THR117      0.1808
    146  OG1       -7.0990   19.3050  -15.8920 O.3   117  THR117     -0.2208
    147  CG2       -5.6930   20.3900  -17.5300 C.3   117  THR117      0.0379
    148  N         -9.9850   18.3540  -17.5160 N.am  118  ALA118     -0.1977
    149  CA       -10.9130   17.2320  -17.4630 C.3   118  ALA118      0.1597
    150  C        -11.4160   17.0500  -18.8940 C.2   118  ALA118      0.2287
    151  O        -11.4660   15.9300  -19.4200 O.2   118  ALA118     -0.2864
    152  CB       -12.0700   17.5470  -16.5380 C.3   118  ALA118      0.0319
    153  N         -9.9380   18.0800  -21.6150 N.3   120  VAL120     -0.1245
    154  CA        -8.7820   17.5800  -22.3530 C.3   120  VAL120      0.1561
    155  C         -8.6130   16.0700  -22.1770 C.2   120  VAL120      0.2260
    156  O         -8.4040   15.3440  -23.1380 O.2   120  VAL120     -0.2867
    157  CB        -7.4770   18.2830  -21.8850 C.3   120  VAL120      0.0252
    158  CG1       -6.2540   17.5660  -22.4610 C.3   120  VAL120      0.0019
    159  CG2       -7.4900   19.7460  -22.3050 C.3   120  VAL120      0.0019
    160  N         -9.6950    9.2870  -13.3920 N.3   135  VAL135     -0.1245
    161  CA        -9.5220   10.6280  -12.8500 C.3   135  VAL135      0.1561
    162  C         -9.0380   10.5310  -11.4090 C.2   135  VAL135      0.2260
    163  O         -9.8360   10.3720  -10.4900 O.2   135  VAL135     -0.2867
    164  CB       -10.8360   11.4380  -12.8700 C.3   135  VAL135      0.0252
    165  CG1      -10.5990   12.8200  -12.2880 C.3   135  VAL135      0.0019
    166  CG2      -11.3500   11.5490  -14.2790 C.3   135  VAL135      0.0019
    167  N         -7.8760   12.2130   -8.3010 N.3   137  THR137     -0.1218
    168  CA        -7.8680   13.5140   -7.6810 C.3   137  THR137      0.1862
    169  C         -7.6320   13.2960   -6.1830 C.2   137  THR137      0.2287
    170  O         -7.2600   12.1890   -5.7680 O.2   137  THR137     -0.2866
    171  CB        -9.1810   14.2230   -7.9780 C.3   137  THR137      0.1770
    172  OG1       -9.1040   15.5850   -7.5440 O.3   137  THR137     -0.2211
    173  CG2      -10.3240   13.4910   -7.3130 C.3   137  THR137      0.0375
    174  N        -13.7970   20.9160  -10.5420 N.3   168  GLU168     -0.1231
    175  CA       -15.0830   20.7300  -11.2150 C.3   168  GLU168      0.1699
    176  C        -15.3040   19.2550  -11.5760 C.2   168  GLU168      0.2592
    177  O        -16.4150   18.8460  -11.9250 O.2   168  GLU168     -0.2718
    178  CB       -15.1300   21.6130  -12.4670 C.3   168  GLU168      0.0402
    179  CG       -14.6650   23.0420  -12.1860 C.3   168  GLU168      0.1161
    180  CD       -14.5330   23.9000  -13.4360 C.2   168  GLU168      0.3649
    181  OE1      -14.1590   23.3580  -14.5030 O.co2 168  GLU168     -0.2457
    182  OE2      -14.7810   25.1250  -13.3450 O.co2 168  GLU168     -0.2457
    183  N        -14.2290   18.4720  -11.4680 N.am  169  LEU169     -0.1980
    184  CA       -14.2230   17.0340  -11.7550 C.3   169  LEU169      0.1596
    185  C        -14.4530   16.7390  -13.2360 C.2   169  LEU169      0.2287
    186  O        -13.5400   16.2960  -13.9300 O.2   169  LEU169     -0.2864
    187  CB       -15.2680   16.3080  -10.8960 C.3   169  LEU169      0.0297
    188  CG       -14.8690   14.8800  -10.4880 C.3   169  LEU169      0.0022
    189  CD1      -15.8550   14.3180   -9.4800 C.3   169  LEU169      0.0001
    190  CD2      -14.8070   13.9920  -11.7160 C.3   169  LEU169      0.0001
@<TRIPOS>BOND
     1   114   112   am
     2   112   113    2
     3   112   111    1
     4   111   110    1
     5   110   107    1
     6    98    97    2
     7   104   105   ar
     8   104   102   ar
     9   105   103   ar
    10   102   100   ar
    11   103   101   ar
    12   100   101   ar
    13   100    99    1
    14    99    96    1
    15    97   106   am
    16    97    96    1
    17   107   106    1
    18   107   108    1
    19   121   120    1
    20   121   115    1
    21    96    95    1
    22   120   119    1
    23   134   132   am
    24   115   108   am
    25   115   116    1
    26   108   109    2
    27   118   117    2
    28   133   132    2
    29   119   116    1
    30    95    93   am
    31    94    93    2
    32   132   131    1
    33   116   117    1
    34   156   155    2
    35   117   122   am
    36    93    92    1
    37   158   157    1
    38    84    82    1
    39   154   155    1
    40   154   157    1
    41   154   153    1
    42   159   157    1
    43   131   130    1
    44    83    81    1
    45   122   123    1
    46   123   124    1
    47   130   127    1
    48    92    91    1
    49   124   125    2
    50   124   126   am
    51    82    81    1
    52    81    78    1
    53   126   127    1
    54   127   128    1
    55    72    70   ar
    56    69    70    1
    57    69    66    1
    58    67    68    2
    59    67    66    1
    60    70    71   ar
    61   138   137    2
    62    78    79    1
    63    78    77    1
    64    79    80    2
    65   151   150    2
    66   128   135   am
    67   128   129    2
    68    66    65    1
    69   135   136    1
    70   150   149    1
    71   144   143    2
    72    77    75   am
    73   137   136    1
    74   137   141   am
    75    90    89    1
    76   142   143    1
    77   142   141    1
    78   142   145    1
    79   143   148   am
    80   136   139    1
    81   147   145    1
    82   148   149    1
    83   149   152    1
    84    87    88    2
    85    87    86    1
    86   145   146    1
    87    75    76    2
    88    75    74    1
    89    73    74    1
    90    89    86    1
    91   140   139    1
    92    86    85    1
    93     6     5    1
    94     6     7    1
    95     1     2    1
    96     5     2    1
    97     2     3    1
    98     8     7    1
    99     8     9    1
   100   181   180   ar
   101    29    30    1
   102   166   164    1
   103    30    31    1
   104     3     4    2
   105   186   185    2
   106    31    33   am
   107    31    32    2
   108    33    34    1
   109    63    61    1
   110    62    64    1
   111    62    61    1
   112   180   182   ar
   113   180   179    1
   114    34    35    1
   115   160   161    1
   116   185   184    1
   117   164   161    1
   118   164   165    1
   119   161   162    1
   120    61    58    1
   121    58    57    1
   122    58    59    1
   123    45    42    1
   124   178   179    1
   125   178   175    1
   126    60    59    2
   127    42    43    1
   128    42    41    1
   129    44    43    2
   130    35    36    2
   131    35    37   am
   132   177   176    2
   133   184   183    1
   134   184   187    1
   135   190   188    1
   136   176   183   am
   137   176   175    1
   138    43    46   am
   139   162   163    2
   140   175   174    1
   141    37    38    1
   142    10    11    1
   143   187   188    1
   144    46    47    1
   145    11    12    1
   146    11    14    1
   147   188   189    1
   148    16    12   am
   149    16    17    1
   150    12    13    2
   151    17    18    1
   152    47    48    1
   153    47    50    1
   154    40    39    2
   155    38    39    1
   156    49    48    2
   157    14    15    1
   158    51    50    1
   159    51    52    1
   160    18    19    2
   161    18    20   am
   162   167   168    1
   163   171   168    1
   164   171   172    1
   165   171   173    1
   166    20    21    1
   167    52    53    1
   168   168   169    1
   169    53    54    2
   170    21    22    1
   171    21    24    1
   172    54    56    1
   173    54    55    1
   174    22    23    2
   175   169   170    2
   176    25    24    1
   177    25    26    1
   178    27    26    1
   179    27    28    1
