@<TRIPOS>MOLECULE
tmp/2j4qA00.pdb
 120 118 0 0 0
SMALL
GASTEIGER

@<TRIPOS>ATOM
      1  N          7.1880    2.7690   26.9380 N.3   107  LEU107     -0.1245
      2  CA         7.4340    3.8440   25.9450 C.3   107  LEU107      0.1561
      3  C          6.2360    4.0590   25.0290 C.2   107  LEU107      0.2260
      4  O          5.7930    3.1410   24.4030 O.2   107  LEU107     -0.2867
      5  CB         8.6840    3.5460   25.1160 C.3   107  LEU107      0.0270
      6  CG         9.1420    4.6830   24.1720 C.3   107  LEU107      0.0019
      7  CD1        9.5460    5.9210   24.9040 C.3   107  LEU107      0.0001
      8  CD2       10.3220    4.2310   23.3470 C.3   107  LEU107      0.0001
      9  N          6.8000    1.7380   17.0980 N.3   121  HIS121     -0.1241
     10  CA         6.9320    0.6180   18.0130 C.3   121  HIS121      0.1621
     11  C          5.8740    0.5810   19.1020 C.2   121  HIS121      0.2264
     12  O          5.9280    1.3250   20.0870 O.2   121  HIS121     -0.2867
     13  CB         8.3450    0.5800   18.5910 C.3   121  HIS121      0.0745
     14  CG         8.8800   -0.7980   18.8270 C.ar  121  HIS121      0.0817
     15  ND1        8.0730   -1.9060   18.9390 N.ar  121  HIS121     -0.2268
     16  CD2       10.1480   -1.2390   18.9950 C.ar  121  HIS121      0.1154
     17  CE1        8.8210   -2.9700   19.1620 C.ar  121  HIS121      0.1986
     18  NE2       10.0830   -2.5930   19.2010 N.ar  121  HIS121     -0.2212
     19  N          4.9880   -3.3110   20.8560 N.3   124  ALA124     -0.1231
     20  CA         5.7340   -3.4530   22.1000 C.3   124  ALA124      0.1694
     21  C          5.9700   -2.1210   22.8120 C.2   124  ALA124      0.2592
     22  O          6.5590   -1.2050   22.2510 O.2   124  ALA124     -0.2718
     23  CB         7.0480   -4.1280   21.8370 C.3   124  ALA124      0.0304
     24  N          5.5310   -2.0330   24.0640 N.am  125  HIS125     -0.1962
     25  CA         5.6050   -0.7870   24.8200 C.3   125  HIS125      0.1787
     26  C          6.6210   -0.8490   25.9560 C.2   125  HIS125      0.2620
     27  O          6.9900    0.1620   26.5310 O.2   125  HIS125     -0.2715
     28  CB         4.2360   -0.4270   25.3800 C.3   125  HIS125      0.0785
     29  CG         3.2170   -0.0920   24.3350 C.ar  125  HIS125      0.0821
     30  ND1        3.2910    1.0400   23.5590 N.ar  125  HIS125     -0.2267
     31  CD2        2.0890   -0.7330   23.9560 C.ar  125  HIS125      0.1154
     32  CE1        2.2540    1.0830   22.7460 C.ar  125  HIS125      0.1986
     33  NE2        1.5090    0.0170   22.9660 N.ar  125  HIS125     -0.2212
     34  N          7.0640   -2.0550   26.2680 N.am  126  ARG126     -0.1963
     35  CA         7.6670   -2.3880   27.5740 C.3   126  ARG126      0.1729
     36  C          9.1910   -2.3840   27.6060 C.2   126  ARG126      0.2616
     37  O          9.8410   -3.0710   26.8060 O.2   126  ARG126     -0.2715
     38  CB         7.1690   -3.7680   27.9690 C.3   126  ARG126      0.0348
     39  CG         7.2540   -4.1120   29.4210 C.3   126  ARG126      0.0492
     40  CD         7.0330   -5.5980   29.6770 C.3   126  ARG126      0.2205
     41  NE         8.1180   -6.3400   29.0040 N.pl3 126  ARG126     -0.0865
     42  CZ         8.0280   -7.0270   27.8510 C.cat 126  ARG126      0.5346
     43  NH1        6.8860   -7.1350   27.1660 N.pl3 126  ARG126      0.1354
     44  NH2        9.1150   -7.6130   27.3920 N.pl3 126  ARG126      0.1354
     45  N          9.7550   -1.6120   28.5370 N.am  127  ILE127     -0.1963
     46  CA        11.1960   -1.6560   28.8470 C.3   127  ILE127      0.1727
     47  C         11.3100   -2.4750   30.1250 C.2   127  ILE127      0.2616
     48  O         10.6510   -2.1450   31.1340 O.2   127  ILE127     -0.2715
     49  CB        11.8070   -0.2430   29.1040 C.3   127  ILE127      0.0290
     50  CG1       11.2480    0.8390   28.1670 C.3   127  ILE127      0.0022
     51  CG2       13.3040   -0.3180   29.0630 C.3   127  ILE127      0.0023
     52  CD1       11.5710    0.6390   26.7620 C.3   127  ILE127      0.0001
     53  N         12.1220   -3.5330   30.1010 N.am  128  ASP128     -0.1971
     54  CA        12.1020   -4.5170   31.1780 C.3   128  ASP128      0.1709
     55  C         12.8980   -4.1010   32.3860 C.2   128  ASP128      0.2293
     56  O         13.8670   -3.3510   32.2640 O.2   128  ASP128     -0.2864
     57  CB        12.6170   -5.8540   30.6960 C.3   128  ASP128      0.1436
     58  CG        11.5810   -6.6090   29.9190 C.2   128  ASP128      0.3671
     59  OD1       10.5490   -7.0700   30.5170 O.co2 128  ASP128     -0.2456
     60  OD2       11.7260   -6.7750   28.7040 O.co2 128  ASP128     -0.2456
     61  N         16.7240   -3.6330   32.1270 N.3   131  TRP131     -0.1241
     62  CA        17.1800   -3.1620   30.8200 C.3   131  TRP131      0.1605
     63  C         18.2110   -2.0880   31.0860 C.2   131  TRP131      0.2264
     64  O         18.0480   -1.3080   31.9970 O.2   131  TRP131     -0.2867
     65  CB        16.0300   -2.6010   29.9350 C.3   131  TRP131      0.0550
     66  CG        16.5800   -1.9100   28.7070 C.ar  131  TRP131      0.0003
     67  CD1       16.7430   -0.5880   28.5300 C.ar  131  TRP131      0.0946
     68  CD2       17.1150   -2.5440   27.5570 C.ar  131  TRP131      0.0152
     69  NE1       17.3440   -0.3440   27.3260 N.ar  131  TRP131     -0.2442
     70  CE2       17.5780   -1.5400   26.7030 C.ar  131  TRP131      0.0810
     71  CE3       17.2390   -3.8800   27.1520 C.ar  131  TRP131      0.0012
     72  CZ2       18.1600   -1.8140   25.4490 C.ar  131  TRP131      0.0191
     73  CZ3       17.8230   -4.1610   25.9300 C.ar  131  TRP131      0.0001
     74  CH2       18.2700   -3.1210   25.0820 C.ar  131  TRP131      0.0015
     75  N         17.1500    2.5090   23.4150 N.3   135  ILE135     -0.1231
     76  CA        15.9930    1.7950   23.0090 C.3   135  ILE135      0.1692
     77  C         15.9430    1.8150   21.4710 C.2   135  ILE135      0.2592
     78  O         16.0110    2.8560   20.8320 O.2   135  ILE135     -0.2718
     79  CB        14.7720    2.4280   23.7290 C.3   135  ILE135      0.0266
     80  CG1       14.9760    2.2720   25.2550 C.3   135  ILE135      0.0019
     81  CG2       13.4640    1.7740   23.2890 C.3   135  ILE135      0.0020
     82  CD1       14.0710    3.1070   26.0430 C.3   135  ILE135      0.0001
     83  N         15.8880    0.6260   20.8880 N.am  136  VAL136     -0.1966
     84  CA        15.6030    0.4710   19.4880 C.3   136  VAL136      0.1727
     85  C         14.1370    0.9180   19.2220 C.2   136  VAL136      0.2616
     86  O         13.2010    0.4720   19.8670 O.2   136  VAL136     -0.2715
     87  CB        15.8180   -0.9650   19.0290 C.3   136  VAL136      0.0290
     88  CG1       15.4280   -1.1230   17.5720 C.3   136  VAL136      0.0023
     89  CG2       17.2670   -1.3530   19.1860 C.3   136  VAL136      0.0023
     90  N         13.9750    1.8140   18.2480 N.am  137  LEU137     -0.1977
     91  CA        12.6800    2.2770   17.8080 C.3   137  LEU137      0.1596
     92  C         12.3860    1.7420   16.4200 C.2   137  LEU137      0.2287
     93  O         13.2540    1.7360   15.5710 O.2   137  LEU137     -0.2864
     94  CB        12.6880    3.7910   17.7710 C.3   137  LEU137      0.0297
     95  CG        12.8410    4.4920   19.1250 C.3   137  LEU137      0.0022
     96  CD1       12.8860    6.0170   18.9670 C.3   137  LEU137      0.0001
     97  CD2       11.7210    4.0500   20.1020 C.3   137  LEU137      0.0001
     98  N         16.4890   -8.3280   33.2780 N.3   171  TYR171     -0.1241
     99  CA        17.2360   -8.3910   32.0330 C.3   171  TYR171      0.1605
    100  C         18.7280   -8.6840   32.2430 C.2   171  TYR171      0.2264
    101  O         19.2070   -9.7000   31.7670 O.2   171  TYR171     -0.2867
    102  CB        17.0370   -7.0970   31.2500 C.3   171  TYR171      0.0534
    103  CG        16.8910   -7.3380   29.7690 C.ar  171  TYR171     -0.0201
    104  CD1       15.6710   -7.7850   29.2370 C.ar  171  TYR171     -0.0009
    105  CD2       17.9670   -7.1480   28.9060 C.ar  171  TYR171     -0.0009
    106  CE1       15.5260   -8.0230   27.8860 C.ar  171  TYR171      0.0417
    107  CE2       17.8380   -7.3820   27.5510 C.ar  171  TYR171      0.0417
    108  CZ        16.6120   -7.8070   27.0450 C.ar  171  TYR171      0.1957
    109  OH        16.4610   -8.0190   25.6980 O.3   171  TYR171     -0.2866
    110  N         20.0020  -13.3720   33.6220 N.3   174  ARG174     -0.1245
    111  CA        19.1320  -14.4170   33.0230 C.3   174  ARG174      0.1563
    112  C         19.7180  -14.8660   31.6730 C.2   174  ARG174      0.2260
    113  O         19.9250  -14.0360   30.7700 O.2   174  ARG174     -0.2867
    114  CB        17.6830  -13.8790   32.8620 C.3   174  ARG174      0.0307
    115  CG        16.8370  -14.4450   31.7260 C.3   174  ARG174      0.0489
    116  CD        15.7440  -13.4770   31.2720 C.3   174  ARG174      0.2205
    117  NE        15.3090  -13.7550   29.8970 N.pl3 174  ARG174     -0.0865
    118  CZ        15.2510  -12.8690   28.8940 C.cat 174  ARG174      0.5346
    119  NH1       15.5790  -11.5790   29.0530 N.pl3 174  ARG174      0.1354
    120  NH2       14.8480  -13.2880   27.7020 N.pl3 174  ARG174      0.1354
@<TRIPOS>BOND
     1    93    92    2
     2    92    91    1
     3     9    10    1
     4    88    87    1
     5    94    91    1
     6    94    95    1
     7    91    90    1
     8    10    13    1
     9    10    11    1
    10    90    85   am
    11    13    14    1
    12    14    15   ar
    13    14    16   ar
    14    15    17   ar
    15    96    95    1
    16    16    18   ar
    17    87    89    1
    18    87    84    1
    19    11    12    2
    20    95    97    1
    21    17    18   ar
    22    85    84    1
    23    85    86    2
    24    84    83    1
    25    78    77    2
    26    19    20    1
    27    83    77   am
    28    77    76    1
    29    23    20    1
    30    20    21    1
    31    22    21    2
    32    32    33   ar
    33    32    30   ar
    34    21    24   am
    35    33    31   ar
    36    76    75    1
    37    76    79    1
    38    81    79    1
    39     8     6    1
    40    30    29   ar
    41    79    80    1
    42    31    29   ar
    43    24    25    1
    44     6     7    1
    45     6     5    1
    46    29    28    1
    47     4     3    2
    48    25    28    1
    49    25    26    1
    50     3     2    1
    51    74    72   ar
    52    74    73   ar
    53     5     2    1
    54    80    82    1
    55    72    70   ar
    56   109   108    1
    57    73    71   ar
    58     2     1    1
    59    26    34   am
    60    26    27    2
    61    34    35    1
    62    70    69   ar
    63    70    68   ar
    64    52    50    1
    65    37    36    2
    66   108   107   ar
    67   108   106   ar
    68    71    68   ar
    69    43    42    1
    70    69    67   ar
    71    44    42    1
    72   107   105   ar
    73    68    66   ar
    74    35    36    1
    75    35    38    1
    76    36    45   am
    77   120   118    1
    78    42    41    2
    79   106   104   ar
    80    38    39    1
    81    50    49    1
    82    67    66   ar
    83    45    46    1
    84    60    58   ar
    85    66    65    1
    86    46    49    1
    87    46    47    1
    88   118   119    1
    89   118   117    2
    90   105   103   ar
    91    41    40    1
    92    51    49    1
    93   104   103   ar
    94    39    40    1
    95   103   102    1
    96   117   116    1
    97    58    59   ar
    98    58    57    1
    99    65    62    1
   100    53    47   am
   101    53    54    1
   102    47    48    2
   103    57    54    1
   104   113   112    2
   105    62    63    1
   106    62    61    1
   107    63    64    2
   108    54    55    1
   109   102    99    1
   110   116   115    1
   111   112   111    1
   112   115   114    1
   113   101   100    2
   114    99   100    1
   115    99    98    1
   116    56    55    2
   117   114   111    1
   118   111   110    1
