@<TRIPOS>MOLECULE
tmp/2j4rA00.pdb
 150 139 0 0 0
SMALL
GASTEIGER

@<TRIPOS>ATOM
      1  N        -15.3020   -6.6460  -36.9120 N.3     9  ASP9       -0.1239
      2  CA       -15.8850   -7.5980  -37.8240 C.3     9  ASP9        0.1674
      3  C        -16.4080   -6.9000  -39.0690 C.2     9  ASP9        0.2266
      4  O        -17.2700   -6.0230  -38.9840 O.2     9  ASP9       -0.2867
      5  CB       -17.0210   -8.3400  -37.1260 C.3     9  ASP9        0.1410
      6  CG       -17.9250   -9.0370  -38.1040 C.2     9  ASP9        0.3668
      7  OD1      -17.4150   -9.9030  -38.8510 O.co2   9  ASP9       -0.2456
      8  OD2      -19.1360   -8.7100  -38.1360 O.co2   9  ASP9       -0.2456
      9  N        -18.6060   -7.4180  -41.8970 N.3    11  GLY11      -0.1210
     10  CA       -19.6430   -8.2870  -42.4190 C.3    11  GLY11       0.1956
     11  C        -20.0020   -7.9480  -43.8440 C.2    11  GLY11       0.2613
     12  O        -19.3420   -7.1160  -44.4750 O.2    11  GLY11      -0.2717
     13  N        -21.0430   -8.5880  -44.3620 N.am   12  SER12      -0.1938
     14  CA       -21.4510   -8.3320  -45.7360 C.3    12  SER12       0.2055
     15  C        -22.2730   -7.0560  -45.8250 C.2    12  SER12       0.2643
     16  O        -22.4990   -6.5150  -46.9100 O.2    12  SER12      -0.2714
     17  CB       -22.2900   -9.4860  -46.2640 C.3    12  SER12       0.2130
     18  OG       -23.5770   -9.4480  -45.6770 O.3    12  SER12      -0.2179
     19  N        -22.7110   -6.5670  -44.6780 N.am   13  ASN13      -0.1957
     20  CA       -23.5410   -5.3800  -44.6720 C.3    13  ASN13       0.1819
     21  C        -23.1100   -4.3770  -43.6030 C.2    13  ASN13       0.2622
     22  O        -23.3030   -3.1710  -43.7460 O.2    13  ASN13      -0.2715
     23  CB       -24.9980   -5.8190  -44.4800 C.3    13  ASN13       0.1195
     24  CG       -25.9540   -4.6620  -44.4150 C.2    13  ASN13       0.2630
     25  OD1      -26.1150   -4.0400  -43.3630 O.2    13  ASN13      -0.2716
     26  ND2      -26.5910   -4.3530  -45.5430 N.am   13  ASN13      -0.0877
     27  N        -22.5010   -4.8830  -42.5410 N.am   14  SER14      -0.1950
     28  CA       -22.0640   -4.0150  -41.4680 C.3    14  SER14       0.1924
     29  C        -20.5930   -4.1700  -41.1250 C.2    14  SER14       0.2314
     30  O        -19.9180   -5.1220  -41.5360 O.2    14  SER14      -0.2863
     31  CB       -22.8990   -4.2740  -40.2140 C.3    14  SER14       0.2116
     32  OG       -22.2790   -3.7130  -39.0700 O.3    14  SER14      -0.2180
     33  N        -18.2710   -3.7490  -37.5900 N.3    16  ARG16      -0.1245
     34  CA       -18.4020   -3.5860  -36.1500 C.3    16  ARG16       0.1563
     35  C        -17.0970   -3.5250  -35.3800 C.2    16  ARG16       0.2260
     36  O        -16.1280   -4.2010  -35.7210 O.2    16  ARG16      -0.2867
     37  CB       -19.2780   -4.7150  -35.6040 C.3    16  ARG16       0.0307
     38  CG       -20.6320   -4.7780  -36.2890 C.3    16  ARG16       0.0489
     39  CD       -21.0740   -6.2010  -36.5370 C.3    16  ARG16       0.2205
     40  NE       -21.1640   -6.9680  -35.2980 N.pl3  16  ARG16      -0.0865
     41  CZ       -21.7900   -8.1370  -35.1790 C.cat  16  ARG16       0.5346
     42  NH1      -22.3920   -8.6830  -36.2270 N.pl3  16  ARG16       0.1354
     43  NH2      -21.8100   -8.7610  -34.0070 N.pl3  16  ARG16       0.1354
     44  N        -23.2170    0.5960  -41.3430 N.3    36  ILE36      -0.1245
     45  CA       -23.6330   -0.1500  -42.5190 C.3    36  ILE36       0.1561
     46  C        -22.9930    0.4090  -43.7810 C.2    36  ILE36       0.2260
     47  O        -23.1480    1.5880  -44.1090 O.2    36  ILE36      -0.2867
     48  CB       -25.1730   -0.1140  -42.6700 C.3    36  ILE36       0.0252
     49  CG1      -25.8130   -0.8130  -41.4720 C.3    36  ILE36       0.0019
     50  CG2      -25.6010   -0.7840  -43.9760 C.3    36  ILE36       0.0019
     51  CD1      -27.1900   -0.2940  -41.1440 C.3    36  ILE36       0.0001
     52  N        -16.2400  -11.7140  -43.4740 N.3    81  THR81      -0.1218
     53  CA       -17.0420  -12.8300  -44.0080 C.3    81  THR81       0.1862
     54  C        -16.3230  -13.4370  -45.1810 C.2    81  THR81       0.2287
     55  O        -15.6190  -12.7350  -45.8940 O.2    81  THR81      -0.2866
     56  CB       -18.3740  -12.3950  -44.6300 C.3    81  THR81       0.1770
     57  OG1      -18.7770  -11.1290  -44.1040 O.3    81  THR81      -0.2211
     58  CG2      -19.4290  -13.4440  -44.3760 C.3    81  THR81       0.0375
     59  N        -16.2440  -18.7900  -37.4370 N.3   113  GLU113     -0.1245
     60  CA       -17.1080  -17.8760  -36.7050 C.3   113  GLU113      0.1567
     61  C        -17.8260  -18.6550  -35.6080 C.2   113  GLU113      0.2260
     62  O        -18.0110  -18.1490  -34.4910 O.2   113  GLU113     -0.2867
     63  CB       -18.1130  -17.2290  -37.6520 C.3   113  GLU113      0.0388
     64  CG       -17.4580  -16.3620  -38.6950 C.3   113  GLU113      0.1160
     65  CD       -18.4520  -15.7230  -39.6480 C.2   113  GLU113      0.3649
     66  OE1      -19.3430  -14.9800  -39.1690 O.co2 113  GLU113     -0.2457
     67  OE2      -18.3360  -15.9600  -40.8760 O.co2 113  GLU113     -0.2457
     68  N        -25.8950  -21.5980  -33.3600 N.3   135  ASP135     -0.1225
     69  CA       -25.9510  -20.2330  -33.8710 C.3   135  ASP135      0.1805
     70  C        -26.7240  -20.1380  -35.1730 C.2   135  ASP135      0.2598
     71  O        -26.1800  -20.3350  -36.2610 O.2   135  ASP135     -0.2718
     72  CB       -24.5610  -19.6450  -34.0790 C.3   135  ASP135      0.1424
     73  CG       -24.6160  -18.1860  -34.4930 C.2   135  ASP135      0.3668
     74  OD1      -25.0060  -17.8950  -35.6440 O.co2 135  ASP135     -0.2456
     75  OD2      -24.2850  -17.3220  -33.6570 O.co2 135  ASP135     -0.2456
     76  N        -28.0050  -19.8360  -35.0360 N.am  136  GLN136     -0.1965
     77  CA       -28.8910  -19.7000  -36.1640 C.3   136  GLN136      0.1733
     78  C        -28.7460  -18.2910  -36.7170 C.2   136  GLN136      0.2617
     79  O        -28.9620  -17.3090  -36.0040 O.2   136  GLN136     -0.2715
     80  CB       -30.3300  -19.9680  -35.7110 C.3   136  GLN136      0.0408
     81  CG       -31.3580  -19.9020  -36.8170 C.3   136  GLN136      0.0908
     82  CD       -31.7630  -18.4890  -37.1220 C.2   136  GLN136      0.2608
     83  OE1      -32.4610  -17.8570  -36.3340 O.2   136  GLN136     -0.2717
     84  NE2      -31.3170  -17.9730  -38.2630 N.am  136  GLN136     -0.0878
     85  N        -28.3590  -18.2080  -37.9890 N.am  137  GLY137     -0.1940
     86  CA       -28.1750  -16.9260  -38.6430 C.3   137  GLY137      0.2014
     87  C        -28.9900  -16.8070  -39.9160 C.2   137  GLY137      0.2639
     88  O        -29.8110  -17.6780  -40.2270 O.2   137  GLY137     -0.2714
     89  N        -28.7600  -15.7260  -40.6570 N.am  138  GLY138     -0.1954
     90  CA       -29.4860  -15.4920  -41.8950 C.3   138  GLY138      0.1869
     91  C        -29.0300  -16.3630  -43.0510 C.2   138  GLY138      0.2309
     92  O        -29.8490  -16.8820  -43.8150 O.2   138  GLY138     -0.2863
     93  N        -27.7570  -15.7700  -31.6480 N.3   204  GLY204     -0.1210
     94  CA       -28.3220  -15.0450  -32.7840 C.3   204  GLY204      0.1956
     95  C        -29.4950  -14.0840  -32.5840 C.2   204  GLY204      0.2612
     96  O        -30.2560  -14.1800  -31.6070 O.2   204  GLY204     -0.2717
     97  N        -29.6480  -13.1710  -33.5440 N.am  205  GLY205     -0.1956
     98  CA       -30.7080  -12.1780  -33.5170 C.3   205  GLY205      0.1869
     99  C        -32.1090  -12.7110  -33.2880 C.2   205  GLY205      0.2309
    100  O        -32.8830  -12.1060  -32.5490 O.2   205  GLY205     -0.2863
    101  N        -37.5900   -6.4870  -35.5170 N.3   258  GLU258     -0.1245
    102  CA       -37.0760   -5.5890  -36.5570 C.3   258  GLU258      0.1567
    103  C        -37.7690   -5.9340  -37.8650 C.2   258  GLU258      0.2260
    104  O        -37.8310   -7.0950  -38.2360 O.2   258  GLU258     -0.2867
    105  CB       -35.5750   -5.7730  -36.7630 C.3   258  GLU258      0.0388
    106  CG       -34.7360   -5.7310  -35.5120 C.3   258  GLU258      0.1160
    107  CD       -33.2410   -5.6150  -35.8120 C.2   258  GLU258      0.3649
    108  OE1      -32.7970   -5.9940  -36.9220 O.co2 258  GLU258     -0.2457
    109  OE2      -32.5020   -5.1510  -34.9250 O.co2 258  GLU258     -0.2457
    110  N        -36.8960   -6.0100  -40.7660 N.3   260  ARG260     -0.1231
    111  CA       -36.0860   -6.9090  -41.5790 C.3   260  ARG260      0.1694
    112  C        -36.2300   -8.3670  -41.1430 C.2   260  ARG260      0.2591
    113  O        -36.1470   -9.2750  -41.9670 O.2   260  ARG260     -0.2718
    114  CB       -34.6150   -6.4830  -41.5300 C.3   260  ARG260      0.0321
    115  CG       -34.0960   -6.1980  -40.1410 C.3   260  ARG260      0.0489
    116  CD       -32.8790   -5.2980  -40.2180 C.3   260  ARG260      0.2205
    117  NE       -31.7620   -5.9500  -40.8840 N.pl3 260  ARG260     -0.0865
    118  CZ       -30.9640   -6.8340  -40.2980 C.cat 260  ARG260      0.5346
    119  NH1      -31.1590   -7.1740  -39.0220 N.pl3 260  ARG260      0.1354
    120  NH2      -29.9680   -7.3740  -40.9890 N.pl3 260  ARG260      0.1354
    121  N        -36.4640   -8.5740  -39.8500 N.am  261  ARG261     -0.1980
    122  CA       -36.6250   -9.9060  -39.2720 C.3   261  ARG261      0.1597
    123  C        -38.0700  -10.3880  -39.2980 C.2   261  ARG261      0.2287
    124  O        -38.3280  -11.5800  -39.4290 O.2   261  ARG261     -0.2864
    125  CB       -36.1550   -9.9130  -37.8120 C.3   261  ARG261      0.0334
    126  CG       -34.6900   -9.5980  -37.6140 C.3   261  ARG261      0.0492
    127  CD       -34.2710   -9.7250  -36.1540 C.3   261  ARG261      0.2205
    128  NE       -32.8590   -9.3820  -35.9540 N.pl3 261  ARG261     -0.0865
    129  CZ       -31.8300  -10.0830  -36.4320 C.cat 261  ARG261      0.5346
    130  NH1      -32.0290  -11.1890  -37.1440 N.pl3 261  ARG261      0.1354
    131  NH2      -30.5920   -9.6640  -36.2120 N.pl3 261  ARG261      0.1354
    132  N        -19.8180  -14.1020  -32.0730 N.3   291  LEU291     -0.1231
    133  CA       -18.5710  -13.9820  -32.8160 C.3   291  LEU291      0.1693
    134  C        -17.7380  -12.7930  -32.3550 C.2   291  LEU291      0.2591
    135  O        -16.6360  -12.9550  -31.8170 O.2   291  LEU291     -0.2718
    136  CB       -18.8900  -13.8620  -34.3080 C.3   291  LEU291      0.0284
    137  CG       -17.8240  -13.2750  -35.2410 C.3   291  LEU291      0.0019
    138  CD1      -16.5490  -14.1190  -35.1920 C.3   291  LEU291      0.0001
    139  CD2      -18.3950  -13.1900  -36.6620 C.3   291  LEU291      0.0001
    140  N        -18.2880  -11.6030  -32.5840 N.am  292  ARG292     -0.1980
    141  CA       -17.6820  -10.3240  -32.2330 C.3   292  ARG292      0.1597
    142  C        -17.0620  -10.3080  -30.8280 C.2   292  ARG292      0.2287
    143  O        -15.9770   -9.7650  -30.6240 O.2   292  ARG292     -0.2864
    144  CB       -18.7570   -9.2420  -32.3930 C.3   292  ARG292      0.0334
    145  CG       -18.6060   -7.9940  -31.5510 C.3   292  ARG292      0.0492
    146  CD       -19.5500   -6.9050  -32.0770 C.3   292  ARG292      0.2205
    147  NE       -20.9600   -7.3120  -32.1150 N.pl3 292  ARG292     -0.0865
    148  CZ       -21.7950   -7.2400  -31.0790 C.cat 292  ARG292      0.5346
    149  NH1      -21.3700   -6.7760  -29.9080 N.pl3 292  ARG292      0.1354
    150  NH2      -23.0630   -7.6210  -31.2160 N.pl3 292  ARG292      0.1354
@<TRIPOS>BOND
     1    16    15    2
     2    17    14    1
     3    17    18    1
     4    55    54    2
     5    15    14    1
     6    15    19   am
     7    14    13    1
     8    26    24   am
     9    54    53    1
    10    19    20    1
    11    20    23    1
    12    20    21    1
    13    56    58    1
    14    56    57    1
    15    56    53    1
    16    23    24    1
    17    12    11    2
    18    24    25    2
    19    13    11   am
    20    47    46    2
    21    53    52    1
    22    50    48    1
    23    11    10    1
    24    92    91    2
    25    46    45    1
    26    22    21    2
    27    21    27   am
    28    91    90    1
    29    48    45    1
    30    48    49    1
    31    27    28    1
    32    45    44    1
    33    10     9    1
    34   113   112    2
    35    90    89    1
    36   111   114    1
    37   111   112    1
    38   111   110    1
    39    30    29    2
    40   114   115    1
    41    49    51    1
    42    28    29    1
    43    28    31    1
    44   112   121   am
    45   120   118    1
    46   117   118    2
    47   117   116    1
    48    67    65   ar
    49    89    87   am
    50   118   119    1
    51    88    87    2
    52   116   115    1
    53    31    32    1
    54    87    86    1
    55   121   122    1
    56    65    66   ar
    57    65    64    1
    58   124   123    2
    59   123   122    1
    60   122   125    1
    61     3     4    2
    62     3     2    1
    63     7     6   ar
    64    64    63    1
    65    86    85    1
    66    84    82   am
    67   104   103    2
    68     8     6   ar
    69     6     5    1
    70    85    78   am
    71   103   102    1
    72     2     5    1
    73     2     1    1
    74   125   126    1
    75    63    60    1
    76   126   127    1
    77    33    34    1
    78    59    60    1
    79   130   129    1
    80    82    81    1
    81    82    83    2
    82   108   107   ar
    83    81    80    1
    84   105   102    1
    85   105   106    1
    86    78    77    1
    87    78    79    2
    88    60    61    1
    89   139   137    1
    90   102   101    1
    91    39    38    1
    92    39    40    1
    93   129   131    1
    94   129   128    2
    95    38    37    1
    96    71    70    2
    97    42    41    1
    98    77    80    1
    99    77    76    1
   100   127   128    1
   101    34    37    1
   102    34    35    1
   103   107   106    1
   104   107   109   ar
   105    36    35    2
   106    74    73   ar
   107    61    62    2
   108    40    41    2
   109   137   138    1
   110   137   136    1
   111    41    43    1
   112    70    76   am
   113    70    69    1
   114    73    72    1
   115    73    75   ar
   116   136   133    1
   117    72    69    1
   118    69    68    1
   119    97    98    1
   120    97    95   am
   121    98    99    1
   122    99   100    2
   123   133   134    1
   124   133   132    1
   125    94    95    1
   126    94    93    1
   127   140   134   am
   128   140   141    1
   129    95    96    2
   130   144   141    1
   131   144   145    1
   132   134   135    2
   133   141   142    1
   134   147   146    1
   135   147   148    2
   136   146   145    1
   137   150   148    1
   138   148   149    1
   139   142   143    2
