@<TRIPOS>MOLECULE
tmp/2j4sA02.pdb
 108 102 0 0 0
SMALL
GASTEIGER

@<TRIPOS>ATOM
      1  N         38.4680   -3.6480   -3.9160 N.3    20  LEU20      -0.1245
      2  CA        37.6000   -4.2260   -4.9120 C.3    20  LEU20       0.1561
      3  C         38.0450   -3.9150   -6.3170 C.2    20  LEU20       0.2260
      4  O         37.2410   -4.0410   -7.2420 O.2    20  LEU20      -0.2867
      5  CB        36.1370   -3.8200   -4.7280 C.3    20  LEU20       0.0270
      6  CG        35.4700   -4.2800   -3.4360 C.3    20  LEU20       0.0019
      7  CD1       33.9780   -3.9650   -3.4950 C.3    20  LEU20       0.0001
      8  CD2       35.7370   -5.7580   -3.1350 C.3    20  LEU20       0.0001
      9  N         34.5490   -8.9850   -7.3370 N.3    25  PRO25      -0.2102
     10  CA        34.3520   -8.3000   -6.0610 C.3    25  PRO25       0.1504
     11  C         33.6680   -9.1540   -4.9950 C.2    25  PRO25       0.2575
     12  O         34.0580   -9.1130   -3.8080 O.2    25  PRO25      -0.2718
     13  CB        33.4920   -7.0950   -6.4340 C.3    25  PRO25       0.0282
     14  CG        32.8370   -7.4500   -7.6880 C.3    25  PRO25       0.0208
     15  CD        33.7470   -8.3690   -8.4060 C.3    25  PRO25       0.0893
     16  N         32.6770   -9.9360   -5.3940 N.am   26  VAL26      -0.1980
     17  CA        32.0480  -10.8450   -4.4200 C.3    26  VAL26       0.1595
     18  C         33.0360  -11.8450   -3.8320 C.2    26  VAL26       0.2287
     19  O         33.0800  -12.0290   -2.6250 O.2    26  VAL26      -0.2864
     20  CB        30.8200  -11.5580   -4.9700 C.3    26  VAL26       0.0276
     21  CG1       30.3450  -12.6410   -3.9650 C.3    26  VAL26       0.0022
     22  CG2       29.7270  -10.5260   -5.2120 C.3    26  VAL26       0.0022
     23  N         35.2680  -10.0130   -1.4790 N.3    29  LEU29      -0.1245
     24  CA        34.6470   -9.7260   -0.1790 C.3    29  LEU29       0.1561
     25  C         34.5710  -10.9820    0.7050 C.2    29  LEU29       0.2260
     26  O         34.5980  -10.8980    1.9520 O.2    29  LEU29      -0.2867
     27  CB        33.2530   -9.1060   -0.3670 C.3    29  LEU29       0.0270
     28  CG        33.2250   -7.7100   -0.9830 C.3    29  LEU29       0.0019
     29  CD1       31.9400   -7.5120   -1.7640 C.3    29  LEU29       0.0001
     30  CD2       33.3390   -6.7010    0.1280 C.3    29  LEU29       0.0001
     31  N         29.0290   -5.7760    5.9060 N.3    51  TYR51      -0.1241
     32  CA        28.8520   -7.1260    5.3850 C.3    51  TYR51       0.1605
     33  C         28.6900   -8.1370    6.4920 C.2    51  TYR51       0.2264
     34  O         29.5690   -8.2600    7.3540 O.2    51  TYR51      -0.2867
     35  CB        30.0200   -7.5130    4.5120 C.3    51  TYR51       0.0534
     36  CG        29.8890   -6.9140    3.1520 C.ar   51  TYR51      -0.0201
     37  CD1       30.3080   -5.5970    2.8970 C.ar   51  TYR51      -0.0009
     38  CD2       29.3080   -7.6440    2.1120 C.ar   51  TYR51      -0.0009
     39  CE1       30.1580   -5.0300    1.6240 C.ar   51  TYR51       0.0417
     40  CE2       29.1460   -7.0800    0.8430 C.ar   51  TYR51       0.0417
     41  CZ        29.5710   -5.7850    0.6120 C.ar   51  TYR51       0.1957
     42  OH        29.4320   -5.2620   -0.6530 O.3    51  TYR51      -0.2866
     43  N         20.3550   -1.6970   -3.2610 N.3    72  SER72      -0.1217
     44  CA        21.7740   -1.4590   -3.4650 C.3    72  SER72       0.1889
     45  C         21.9150   -0.5580   -4.6660 C.2    72  SER72       0.2288
     46  O         20.9710   -0.3990   -5.4760 O.2    72  SER72      -0.2866
     47  CB        22.4390   -2.7840   -3.7840 C.3    72  SER72       0.2089
     48  OG        21.7010   -3.3700   -4.8430 O.3    72  SER72      -0.2183
     49  N         23.5710   -1.2850   -7.2330 N.3    74  ALA74      -0.1231
     50  CA        23.2880   -2.1520   -8.3970 C.3    74  ALA74       0.1694
     51  C         21.7920   -2.1190   -8.7800 C.2    74  ALA74       0.2591
     52  O         21.4470   -1.9050   -9.9420 O.2    74  ALA74      -0.2718
     53  CB        23.7220   -3.5980   -8.1200 C.3    74  ALA74       0.0304
     54  N         20.9180   -2.3520   -7.8040 N.am   75  LEU75      -0.1980
     55  CA        19.4690   -2.3040   -8.0090 C.3    75  LEU75       0.1596
     56  C         18.9850   -0.9190   -8.4350 C.2    75  LEU75       0.2287
     57  O         18.0730   -0.7890   -9.2460 O.2    75  LEU75      -0.2864
     58  CB        18.7440   -2.7310   -6.7240 C.3    75  LEU75       0.0297
     59  CG        18.8200   -4.2210   -6.3850 C.3    75  LEU75       0.0022
     60  CD1       17.9180   -4.4950   -5.2640 C.3    75  LEU75       0.0001
     61  CD2       18.4740   -5.0970   -7.5910 C.3    75  LEU75       0.0001
     62  N         28.7480    0.6780  -11.5430 N.3   188  LEU188     -0.1245
     63  CA        29.1840    0.5360  -10.1450 C.3   188  LEU188      0.1561
     64  C         30.6520    0.9610   -9.9500 C.2   188  LEU188      0.2260
     65  O         30.9800    1.6660   -8.9830 O.2   188  LEU188     -0.2867
     66  CB        28.9720   -0.8850   -9.6280 C.3   188  LEU188      0.0270
     67  CG        27.5180   -1.3190   -9.5630 C.3   188  LEU188      0.0019
     68  CD1       27.3990   -2.8320   -9.5790 C.3   188  LEU188      0.0001
     69  CD2       26.8500   -0.7180   -8.3490 C.3   188  LEU188      0.0001
     70  N         24.5680  -13.4520   -5.1770 N.3   326  PRO326     -0.2102
     71  CA        25.3010  -13.7700   -3.9570 C.3   326  PRO326      0.1504
     72  C         25.1660  -12.8040   -2.7840 C.2   326  PRO326      0.2576
     73  O         25.6580  -13.1210   -1.7050 O.2   326  PRO326     -0.2718
     74  CB        26.7340  -13.8420   -4.4330 C.3   326  PRO326      0.0282
     75  CG        26.7910  -12.7390   -5.4710 C.3   326  PRO326      0.0208
     76  CD        25.4510  -12.8940   -6.2130 C.3   326  PRO326      0.0893
     77  N         24.4970  -11.6600   -2.9750 N.am  327  ALA327     -0.1966
     78  CA        24.3730  -10.6590   -1.9250 C.3   327  ALA327      0.1728
     79  C         23.0500   -9.9060   -2.0020 C.2   327  ALA327      0.2616
     80  O         22.4600   -9.7730   -3.0690 O.2   327  ALA327     -0.2715
     81  CB        25.5130   -9.6850   -1.9830 C.3   327  ALA327      0.0334
     82  N         22.5440   -9.4700   -0.8610 N.am  328  PHE328     -0.1974
     83  CA        21.3570   -8.6480   -0.8590 C.3   328  PHE328      0.1639
     84  C         21.4880   -7.6400    0.2730 C.2   328  PHE328      0.2290
     85  O         22.2040   -7.8740    1.2670 O.2   328  PHE328     -0.2864
     86  CB        20.0300   -9.4630   -0.8790 C.3   328  PHE328      0.0560
     87  CG        19.7670  -10.3250    0.3480 C.ar  328  PHE328     -0.0200
     88  CD1       20.0770  -11.6850    0.3460 C.ar  328  PHE328     -0.0042
     89  CD2       19.1590   -9.7950    1.4780 C.ar  328  PHE328     -0.0042
     90  CE1       19.8170  -12.4910    1.4680 C.ar  328  PHE328     -0.0003
     91  CE2       18.8970  -10.5970    2.6030 C.ar  328  PHE328     -0.0003
     92  CZ        19.2210  -11.9470    2.5830 C.ar  328  PHE328     -0.0000
     93  N         24.7850   -5.6600    4.1640 N.3   351  MET351     -0.1245
     94  CA        24.7870   -6.5390    3.0010 C.3   351  MET351      0.1570
     95  C         24.8770   -7.9670    3.4730 C.2   351  MET351      0.2261
     96  O         25.7370   -8.2930    4.2680 O.2   351  MET351     -0.2867
     97  CB        25.9750   -6.2080    2.0860 C.3   351  MET351      0.0387
     98  CG        25.6890   -5.0990    1.0440 C.3   351  MET351      0.0595
     99  SD        24.6320   -5.6290   -0.3420 S.3   351  MET351     -0.1393
    100  CE        25.1780   -7.2990   -0.5060 C.3   351  MET351      0.0692
    101  N         26.1720   -9.2900  -12.4890 N.3   434  LEU434     -0.1245
    102  CA        25.3950   -9.0000  -11.2880 C.3   434  LEU434      0.1561
    103  C         25.1590  -10.3250  -10.5420 C.2   434  LEU434      0.2260
    104  O         24.8510  -10.3400   -9.3440 O.2   434  LEU434     -0.2867
    105  CB        24.1240   -8.2320  -11.6260 C.3   434  LEU434      0.0270
    106  CG        24.3930   -6.8620  -12.3180 C.3   434  LEU434      0.0019
    107  CD1       23.1440   -6.3880  -13.0980 C.3   434  LEU434      0.0001
    108  CD2       24.9740   -5.6960  -11.4130 C.3   434  LEU434      0.0001
@<TRIPOS>BOND
     1   107   106    1
     2   101   102    1
     3   106   105    1
     4   106   108    1
     5   105   102    1
     6    62    63    1
     7   102   103    1
     8   103   104    2
     9    63    64    1
    10    63    66    1
    11    64    65    2
    12    52    51    2
    13    66    67    1
    14    68    67    1
    15    67    69    1
    16    57    56    2
    17    51    50    1
    18    51    54   am
    19    56    55    1
    20    15    14    1
    21    15     9    1
    22    50    53    1
    23    50    49    1
    24    55    54    1
    25    55    58    1
    26    14    13    1
    27    61    59    1
    28     9    10    1
    29     4     3    2
    30    58    59    1
    31    13    10    1
    32    59    60    1
    33     3     2    1
    34    76    75    1
    35    76    70    1
    36    10    11    1
    37    46    45    2
    38    75    74    1
    39    16    11   am
    40    16    17    1
    41    22    20    1
    42    70    71    1
    43    11    12    2
    44    20    17    1
    45    20    21    1
    46     2     5    1
    47     2     1    1
    48    48    47    1
    49     5     6    1
    50    45    44    1
    51    74    71    1
    52    17    18    1
    53    71    72    1
    54    18    19    2
    55    47    44    1
    56     7     6    1
    57    44    43    1
    58     6     8    1
    59    80    79    2
    60    77    72   am
    61    77    78    1
    62    72    73    2
    63    79    78    1
    64    79    82   am
    65    81    78    1
    66    29    28    1
    67    23    24    1
    68    28    27    1
    69    28    30    1
    70    86    83    1
    71    86    87    1
    72    82    83    1
    73    83    84    1
    74    42    41    1
    75   100    99    1
    76    27    24    1
    77    99    98    1
    78    24    25    1
    79    84    85    2
    80    88    87   ar
    81    88    90   ar
    82    87    89   ar
    83    41    40   ar
    84    41    39   ar
    85    25    26    2
    86    40    38   ar
    87    98    97    1
    88    90    92   ar
    89    89    91   ar
    90    39    37   ar
    91    97    94    1
    92    38    36   ar
    93    92    91   ar
    94    37    36   ar
    95    94    95    1
    96    94    93    1
    97    36    35    1
    98    95    96    2
    99    35    32    1
   100    32    31    1
   101    32    33    1
   102    33    34    2
