@<TRIPOS>MOLECULE
tmp/2j4yA00.pdb
 211 202 0 0 0
SMALL
GASTEIGER

@<TRIPOS>ATOM
      1  N         -0.5940    3.1220    1.6600 N.3    86  MET86      -0.1245
      2  CA        -1.3670    3.6650    0.5820 C.3    86  MET86       0.1570
      3  C         -1.4920    2.5680   -0.4540 C.2    86  MET86       0.2261
      4  O         -2.5990    2.2440   -0.8730 O.2    86  MET86      -0.2867
      5  CB        -0.6710    4.8930    0.0060 C.3    86  MET86       0.0387
      6  CG        -0.7090    6.0610    0.9620 C.3    86  MET86       0.0595
      7  SD        -0.1510    7.6480    0.3190 S.3    86  MET86      -0.1393
      8  CE        -1.2790    7.9890   -1.0610 C.3    86  MET86       0.0692
      9  N         -9.9700    2.6620    0.6560 N.3   113  GLU113     -0.1231
     10  CA        -9.5440    3.5120   -0.4620 C.3   113  GLU113      0.1699
     11  C         -9.4320    4.9440    0.0170 C.2   113  GLU113      0.2592
     12  O         -8.3520    5.5480   -0.0040 O.2   113  GLU113     -0.2718
     13  CB       -10.5910    3.4740   -1.5840 C.3   113  GLU113      0.0402
     14  CG       -10.2110    4.1590   -2.9210 C.3   113  GLU113      0.1161
     15  CD        -9.2080    5.3020   -2.7850 C.2   113  GLU113      0.3649
     16  OE1       -9.6280    6.4810   -2.6630 O.co2 113  GLU113     -0.2457
     17  OE2       -7.9910    4.9960   -2.7890 O.co2 113  GLU113     -0.2457
     18  N        -10.5880    5.4680    0.4250 N.am  114  GLY114     -0.1957
     19  CA       -10.7180    6.8340    0.9100 C.3   114  GLY114      0.1869
     20  C        -10.0480    7.1050    2.2440 C.2   114  GLY114      0.2309
     21  O         -9.7790    8.2580    2.5930 O.2   114  GLY114     -0.2863
     22  N         -5.8150    7.0560    1.7610 N.3   117  ALA117     -0.1231
     23  CA        -5.3760    8.0750    0.8070 C.3   117  ALA117      0.1694
     24  C         -5.3480    9.3510    1.6200 C.2   117  ALA117      0.2592
     25  O         -4.3830   10.1160    1.5720 O.2   117  ALA117     -0.2718
     26  CB        -6.3790    8.1940   -0.3600 C.3   117  ALA117      0.0304
     27  N         -6.4190    9.5550    2.3810 N.am  118  THR118     -0.1953
     28  CA        -6.5270   10.7140    3.2350 C.3   118  THR118      0.1897
     29  C         -5.4290   10.5900    4.2370 C.2   118  THR118      0.2313
     30  O         -4.7710   11.5790    4.5610 O.2   118  THR118     -0.2863
     31  CB        -7.7980   10.7190    4.0330 C.3   118  THR118      0.1794
     32  OG1       -8.9020   10.6510    3.1360 O.3   118  THR118     -0.2208
     33  CG2       -7.8790   11.9870    4.9100 C.3   118  THR118      0.0378
     34  N         -1.8960   11.1080    2.8960 N.3   121  GLY121     -0.1210
     35  CA        -1.8130   12.5190    2.5570 C.3   121  GLY121      0.1956
     36  C         -1.5570   13.3700    3.8050 C.2   121  GLY121      0.2611
     37  O         -0.7100   14.2790    3.7880 O.2   121  GLY121     -0.2717
     38  N         -2.2790   13.0790    4.8930 N.am  122  GLU122     -0.1979
     39  CA        -2.1170   13.8040    6.1580 C.3   122  GLU122      0.1602
     40  C         -0.7850   13.5210    6.8610 C.2   122  GLU122      0.2287
     41  O         -0.2570   14.4020    7.5280 O.2   122  GLU122     -0.2864
     42  CB        -3.2760   13.4940    7.1100 C.3   122  GLU122      0.0415
     43  CG        -4.5260   14.3090    6.8470 C.3   122  GLU122      0.1163
     44  CD        -4.2460   15.8010    6.8630 C.2   122  GLU122      0.3649
     45  OE1       -3.6630   16.3020    7.8630 O.co2 122  GLU122     -0.2457
     46  OE2       -4.6140   16.4690    5.8720 O.co2 122  GLU122     -0.2457
     47  N          1.5110   15.8760    5.0080 N.3   125  LEU125     -0.1245
     48  CA         1.3750   17.3310    5.1590 C.3   125  LEU125      0.1561
     49  C          1.9480   17.6830    6.5400 C.2   125  LEU125      0.2260
     50  O          2.7090   18.6430    6.6640 O.2   125  LEU125     -0.2867
     51  CB        -0.0880   17.7990    5.1130 C.3   125  LEU125      0.0270
     52  CG        -0.4230   19.2720    4.7740 C.3   125  LEU125      0.0019
     53  CD1       -1.8410   19.5320    5.2490 C.3   125  LEU125      0.0001
     54  CD2        0.5080   20.2870    5.4200 C.3   125  LEU125      0.0001
     55  N         -7.9990   13.5960   10.9400 N.3   167  CYS167     -0.1235
     56  CA        -8.6380   13.9640    9.6830 C.3   167  CYS167      0.1677
     57  C         -9.2870   12.7400    9.0320 C.2   167  CYS167      0.2270
     58  O        -10.4490   12.7770    8.6240 O.2   167  CYS167     -0.2867
     59  CB        -7.5740   14.5570    8.7460 C.3   167  CYS167      0.0956
     60  SG        -8.1090   14.9970    7.0730 S.3   167  CYS167     -0.0801
     61  N        -15.9970    9.3670   -5.6100 N.3   181  GLU181     -0.1245
     62  CA       -15.6520   10.6080   -6.3200 C.3   181  GLU181      0.1567
     63  C        -15.6380   10.4440   -7.8600 C.2   181  GLU181      0.2260
     64  O        -15.5690    9.3280   -8.3820 O.2   181  GLU181     -0.2867
     65  CB       -14.2460   11.0890   -5.9220 C.3   181  GLU181      0.0388
     66  CG       -14.0430   11.7190   -4.5490 C.3   181  GLU181      0.1160
     67  CD       -12.6450   12.3620   -4.4230 C.2   181  GLU181      0.3649
     68  OE1      -11.6130   11.6370   -4.4610 O.co2 181  GLU181     -0.2457
     69  OE2      -12.5930   13.6080   -4.3000 O.co2 181  GLU181     -0.2457
     70  N        -12.5800    6.1470   -6.9890 N.3   186  SER186     -0.1202
     71  CA       -11.6660    6.8210   -6.0700 C.3   186  SER186      0.2020
     72  C        -12.5530    7.4720   -5.0180 C.2   186  SER186      0.2619
     73  O        -13.3650    8.3280   -5.3540 O.2   186  SER186     -0.2717
     74  CB       -10.8560    7.9000   -6.7940 C.3   186  SER186      0.2103
     75  OG       -11.6640    9.0060   -7.1630 O.3   186  SER186     -0.2182
     76  N        -12.4150    7.0740   -3.7540 N.am  187  CYS187     -0.1955
     77  CA       -13.2570    7.6300   -2.6850 C.3   187  CYS187      0.1843
     78  C        -12.5770    8.6640   -1.7960 C.2   187  CYS187      0.2626
     79  O        -11.4380    8.4910   -1.4080 O.2   187  CYS187     -0.2714
     80  CB       -13.8100    6.4990   -1.8070 C.3   187  CYS187      0.0997
     81  SG       -15.5250    6.0000   -2.2000 S.3   187  CYS187     -0.0797
     82  N        -13.2870    9.7390   -1.4780 N.am  188  GLY188     -0.1940
     83  CA       -12.7280   10.7660   -0.6250 C.3   188  GLY188      0.2014
     84  C        -13.8430   11.3900    0.1790 C.2   188  GLY188      0.2638
     85  O        -15.0010   11.1620   -0.1300 O.2   188  GLY188     -0.2714
     86  N        -13.4990   12.1560    1.2100 N.am  189  ILE189     -0.1977
     87  CA       -14.4810   12.8300    2.0670 C.3   189  ILE189      0.1596
     88  C        -15.6610   13.3830    1.2620 C.2   189  ILE189      0.2287
     89  O        -15.4760   13.9990    0.2210 O.2   189  ILE189     -0.2864
     90  CB       -13.8350   14.0030    2.8210 C.3   189  ILE189      0.0276
     91  CG1      -12.6820   13.4870    3.6780 C.3   189  ILE189      0.0022
     92  CG2      -14.8680   14.7110    3.6630 C.3   189  ILE189      0.0022
     93  CD1      -13.0600   12.3710    4.6070 C.3   189  ILE189      0.0001
     94  N        -17.4740   15.7270    0.0490 N.3   191  TYR191     -0.1241
     95  CA       -17.5820   17.1740   -0.2460 C.3   191  TYR191      0.1605
     96  C        -18.7940   17.3200   -1.1620 C.2   191  TYR191      0.2264
     97  O        -19.0810   18.4110   -1.6600 O.2   191  TYR191     -0.2867
     98  CB       -16.3830   17.7110   -1.0480 C.3   191  TYR191      0.0534
     99  CG       -15.0700   17.0120   -0.8360 C.ar  191  TYR191     -0.0201
    100  CD1      -14.4890   16.9550    0.4260 C.ar  191  TYR191     -0.0009
    101  CD2      -14.4280   16.3730   -1.8920 C.ar  191  TYR191     -0.0009
    102  CE1      -13.3080   16.2700    0.6450 C.ar  191  TYR191      0.0417
    103  CE2      -13.2450   15.6800   -1.6970 C.ar  191  TYR191      0.0417
    104  CZ       -12.6880   15.6270   -0.4220 C.ar  191  TYR191      0.1957
    105  OH       -11.5390   14.9060   -0.2000 O.3   191  TYR191     -0.2866
    106  N        -11.6960   19.5790    8.8190 N.3   207  MET207     -0.1230
    107  CA       -10.5860   18.9810    8.0720 C.3   207  MET207      0.1702
    108  C         -9.7350   20.0050    7.3240 C.2   207  MET207      0.2592
    109  O         -8.5010   19.9570    7.3900 O.2   207  MET207     -0.2718
    110  CB       -11.1190   17.9550    7.0710 C.3   207  MET207      0.0401
    111  CG       -10.1580   17.6510    5.9470 C.3   207  MET207      0.0596
    112  SD       -10.9810   16.7850    4.6250 S.3   207  MET207     -0.1393
    113  CE       -11.5950   18.1430    3.5360 C.3   207  MET207      0.0692
    114  N        -10.4100   20.9180    6.6200 N.am  208  PHE208     -0.1976
    115  CA        -9.7490   21.9650    5.8430 C.3   208  PHE208      0.1639
    116  C         -8.9860   22.9870    6.6620 C.2   208  PHE208      0.2290
    117  O         -7.8650   23.3270    6.3090 O.2   208  PHE208     -0.2864
    118  CB       -10.7570   22.6890    4.9500 C.3   208  PHE208      0.0560
    119  CG       -10.7470   22.2110    3.5200 C.ar  208  PHE208     -0.0200
    120  CD1       -9.6010   22.3570    2.7340 C.ar  208  PHE208     -0.0042
    121  CD2      -11.8600   21.5730    2.9650 C.ar  208  PHE208     -0.0042
    122  CE1       -9.5570   21.8720    1.4090 C.ar  208  PHE208     -0.0003
    123  CE2      -11.8280   21.0840    1.6450 C.ar  208  PHE208     -0.0003
    124  CZ       -10.6690   21.2340    0.8670 C.ar  208  PHE208     -0.0000
    125  N         -6.1350   20.8330    8.9380 N.3   211  HIS211     -0.1226
    126  CA        -5.3580   19.9300    8.1280 C.3   211  HIS211      0.1752
    127  C         -5.0720   20.4400    6.7040 C.2   211  HIS211      0.2596
    128  O         -4.8430   19.6620    5.7700 O.2   211  HIS211     -0.2718
    129  CB        -6.0950   18.6200    8.1540 C.3   211  HIS211      0.0759
    130  CG        -6.4970   18.2320    9.5350 C.ar  211  HIS211      0.0818
    131  ND1       -5.6300   17.6060   10.4040 N.ar  211  HIS211     -0.2268
    132  CD2       -7.6240   18.4930   10.2490 C.ar  211  HIS211      0.1154
    133  CE1       -6.2020   17.5000   11.5910 C.ar  211  HIS211      0.1986
    134  NE2       -7.4110   18.0330   11.5240 N.ar  211  HIS211     -0.2212
    135  N         -5.0540   21.7710    6.5740 N.am  212  PHE212     -0.1976
    136  CA        -4.7170   22.5010    5.3390 C.3   212  PHE212      0.1639
    137  C         -4.1540   23.8770    5.6920 C.2   212  PHE212      0.2290
    138  O         -2.9430   24.1090    5.5560 O.2   212  PHE212     -0.2864
    139  CB        -5.9290   22.6680    4.4060 C.3   212  PHE212      0.0560
    140  CG        -5.5420   22.8640    2.9440 C.ar  212  PHE212     -0.0200
    141  CD1       -4.7900   21.8940    2.2840 C.ar  212  PHE212     -0.0042
    142  CD2       -5.8890   24.0070    2.2390 C.ar  212  PHE212     -0.0042
    143  CE1       -4.3910   22.0670    0.9480 C.ar  212  PHE212     -0.0003
    144  CE2       -5.4910   24.1790    0.9110 C.ar  212  PHE212     -0.0003
    145  CZ        -4.7450   23.2130    0.2640 C.ar  212  PHE212     -0.0000
    146  N          4.7350   19.3110   -2.7730 N.3   261  PHE261     -0.1241
    147  CA         3.4560   19.0000   -2.1480 C.3   261  PHE261      0.1605
    148  C          2.3290   19.8970   -2.6820 C.2   261  PHE261      0.2264
    149  O          1.1940   19.4610   -2.8230 O.2   261  PHE261     -0.2867
    150  CB         3.5860   19.1040   -0.6140 C.3   261  PHE261      0.0534
    151  CG         2.3110   18.7890    0.1400 C.ar  261  PHE261     -0.0203
    152  CD1        1.2720   19.7200    0.2170 C.ar  261  PHE261     -0.0042
    153  CD2        2.1330   17.5550    0.7490 C.ar  261  PHE261     -0.0042
    154  CE1        0.0720   19.4270    0.8840 C.ar  261  PHE261     -0.0003
    155  CE2        0.9330   17.2570    1.4210 C.ar  261  PHE261     -0.0003
    156  CZ        -0.0960   18.2030    1.4800 C.ar  261  PHE261     -0.0000
    157  N         -0.9140   17.9360   -4.5770 N.3   265  TRP265     -0.1241
    158  CA        -2.1270   18.0370   -3.7610 C.3   265  TRP265      0.1605
    159  C         -3.0530   19.2330   -3.9560 C.2   265  TRP265      0.2264
    160  O         -4.2810   19.0740   -3.8640 O.2   265  TRP265     -0.2867
    161  CB        -1.7660   17.9450   -2.2650 C.3   265  TRP265      0.0550
    162  CG        -1.5600   16.5350   -1.7780 C.ar  265  TRP265      0.0003
    163  CD1       -0.3700   15.9260   -1.4730 C.ar  265  TRP265      0.0946
    164  CD2       -2.5700   15.5570   -1.5590 C.ar  265  TRP265      0.0152
    165  NE1       -0.5830   14.6310   -1.0830 N.ar  265  TRP265     -0.2442
    166  CE2       -1.9400   14.3740   -1.1400 C.ar  265  TRP265      0.0810
    167  CE3       -3.9680   15.5580   -1.7050 C.ar  265  TRP265      0.0012
    168  CZ2       -2.6370   13.2140   -0.8360 C.ar  265  TRP265      0.0191
    169  CZ3       -4.6640   14.4100   -1.4110 C.ar  265  TRP265      0.0001
    170  CH2       -4.0010   13.2510   -0.9920 C.ar  265  TRP265      0.0015
    171  N         -6.2480   18.6020   -6.3530 N.3   268  TYR268     -0.1227
    172  CA        -7.3850   17.8530   -5.8250 C.3   268  TYR268      0.1736
    173  C         -8.3160   18.7830   -5.0310 C.2   268  TYR268      0.2595
    174  O         -9.5420   18.6900   -5.1010 O.2   268  TYR268     -0.2718
    175  CB        -6.8930   16.7240   -4.9150 C.3   268  TYR268      0.0548
    176  CG        -8.0270   15.9550   -4.2520 C.ar  268  TYR268     -0.0200
    177  CD1       -8.8600   15.1020   -4.9970 C.ar  268  TYR268     -0.0009
    178  CD2       -8.2680   16.0790   -2.8850 C.ar  268  TYR268     -0.0009
    179  CE1       -9.9000   14.3890   -4.3870 C.ar  268  TYR268      0.0417
    180  CE2       -9.2980   15.3820   -2.2670 C.ar  268  TYR268      0.0417
    181  CZ       -10.1130   14.5370   -3.0170 C.ar  268  TYR268      0.1957
    182  OH       -11.1310   13.8460   -2.3840 O.3   268  TYR268     -0.2866
    183  N         -7.6910   19.6780   -4.2780 N.am  269  ALA269     -0.1980
    184  CA        -8.3900   20.6380   -3.4450 C.3   269  ALA269      0.1597
    185  C         -9.1050   21.6630   -4.2950 C.2   269  ALA269      0.2287
    186  O        -10.2390   22.0200   -4.0270 O.2   269  ALA269     -0.2864
    187  CB        -7.4100   21.3320   -2.5340 C.3   269  ALA269      0.0319
    188  N        -12.1380   19.7170   -4.9380 N.3   272  ALA272     -0.1245
    189  CA       -12.8440   19.3430   -3.7040 C.3   272  ALA272      0.1562
    190  C        -13.5330   20.5680   -3.1140 C.2   272  ALA272      0.2260
    191  O        -14.6660   20.4820   -2.6550 O.2   272  ALA272     -0.2867
    192  CB       -11.8860   18.7410   -2.6740 C.3   272  ALA272      0.0290
    193  N         -7.8000   13.8140   -8.2990 N.3   292  ALA292     -0.1245
    194  CA        -7.7400   12.7030   -7.3720 C.3   292  ALA292      0.1562
    195  C         -6.6400   11.7370   -7.8000 C.2   292  ALA292      0.2260
    196  O         -5.6290   11.6170   -7.1140 O.2   292  ALA292     -0.2867
    197  CB        -9.0920   11.9800   -7.3060 C.3   292  ALA292      0.0290
    198  N         -3.0930   13.5920   -8.0340 N.3   295  ALA295     -0.1231
    199  CA        -2.5630   13.8700   -6.7200 C.3   295  ALA295      0.1694
    200  C         -2.2390   12.5710   -5.9830 C.2   295  ALA295      0.2591
    201  O         -1.4650   12.5730   -5.0400 O.2   295  ALA295     -0.2718
    202  CB        -3.5770   14.7070   -5.9240 C.3   295  ALA295      0.0304
    203  N         -2.8100   11.4600   -6.4350 N.am  296  LYS296     -0.1980
    204  CA        -2.5980   10.1670   -5.7910 C.3   296  LYS296      0.1596
    205  C         -1.1740    9.6440   -5.8950 C.2   296  LYS296      0.2287
    206  O         -0.8980    8.5200   -5.4880 O.2   296  LYS296     -0.2864
    207  CB        -3.5470    9.1320   -6.3720 C.3   296  LYS296      0.0298
    208  CG        -3.8170    7.9710   -5.4530 C.3   296  LYS296      0.0038
    209  CD        -4.7510    6.9650   -6.1090 C.3   296  LYS296      0.0206
    210  CE        -6.0460    7.6000   -6.6340 C.3   296  LYS296      0.1093
    211  NZ        -7.0880    7.8880   -5.6250 N.3   296  LYS296     -0.1314
@<TRIPOS>BOND
     1    64    63    2
     2   193   194    1
     3   198   199    1
     4    63    62    1
     5   195   194    1
     6   195   196    2
     7   194   197    1
     8    75    74    1
     9    70    71    1
    10    74    71    1
    11   199   200    1
    12   199   202    1
    13   210   209    1
    14   210   211    1
    15   203   200   am
    16   203   204    1
    17   207   204    1
    18   207   208    1
    19   171   172    1
    20    62    65    1
    21    62    61    1
    22   209   208    1
    23    71    72    1
    24   200   201    2
    25    65    66    1
    26   205   204    1
    27   205   206    2
    28   172   173    1
    29   172   175    1
    30    73    72    2
    31   174   173    2
    32   173   183   am
    33    72    76   am
    34   177   179   ar
    35   177   176   ar
    36   188   189    1
    37   175   176    1
    38   157   158    1
    39    66    67    1
    40    68    67   ar
    41    67    69   ar
    42   179   181   ar
    43   185   186    2
    44   185   184    1
    45   183   184    1
    46   176   178   ar
    47   159   160    2
    48   159   158    1
    49   158   161    1
    50    76    77    1
    51   189   190    1
    52   189   192    1
    53   184   187    1
    54   190   191    2
    55   181   182    1
    56   181   180   ar
    57    14    15    1
    58    14    13    1
    59   178   180   ar
    60   149   148    2
    61    17    15   ar
    62    15    16   ar
    63   146   147    1
    64    77    80    1
    65    77    78    1
    66   148   147    1
    67   161   162    1
    68    81    80    1
    69   147   150    1
    70   101   103   ar
    71   101    99   ar
    72    78    82   am
    73    78    79    2
    74   162   164   ar
    75   162   163   ar
    76   167   164   ar
    77   167   169   ar
    78   103   104   ar
    79    97    96    2
    80    13    10    1
    81   164   166   ar
    82    82    83    1
    83   163   165   ar
    84   169   170   ar
    85    96    95    1
    86   166   165   ar
    87   166   168   ar
    88     8     7    1
    89    98    99    1
    90    98    95    1
    91   170   168   ar
    92     4     3    2
    93    99   100   ar
    94    83    84    1
    95   150   151    1
    96    10    11    1
    97    10     9    1
    98     3     2    1
    99   104   105    1
   100   104   102   ar
   101    26    23    1
   102    95    94    1
   103    85    84    2
   104    12    11    2
   105     5     2    1
   106     5     6    1
   107    11    18   am
   108   151   152   ar
   109   151   153   ar
   110    84    86   am
   111   152   154   ar
   112    89    88    2
   113   145   144   ar
   114   145   143   ar
   115     7     6    1
   116    18    19    1
   117   100   102   ar
   118     2     1    1
   119   153   155   ar
   120    23    24    1
   121    23    22    1
   122   124   122   ar
   123   124   123   ar
   124   154   156   ar
   125    19    20    1
   126   144   142   ar
   127   143   141   ar
   128    86    87    1
   129    88    87    1
   130   122   120   ar
   131   155   156   ar
   132    25    24    2
   133    24    27   am
   134   123   121   ar
   135    87    90    1
   136   142   140   ar
   137    20    21    2
   138   141   140   ar
   139    27    28    1
   140    35    34    1
   141    35    36    1
   142   120   119   ar
   143    90    92    1
   144    90    91    1
   145   140   139    1
   146   121   119   ar
   147    32    31    1
   148    28    31    1
   149    28    29    1
   150   119   118    1
   151   113   112    1
   152    91    93    1
   153    37    36    2
   154    36    38   am
   155    31    33    1
   156    29    30    2
   157   139   136    1
   158   112   111    1
   159    52    51    1
   160    52    53    1
   161    52    54    1
   162    38    39    1
   163   118   115    1
   164    47    48    1
   165    51    48    1
   166    48    49    1
   167   136   137    1
   168   136   135    1
   169   138   137    2
   170   128   127    2
   171   115   114    1
   172   115   116    1
   173    46    44   ar
   174   111   110    1
   175    39    40    1
   176    39    42    1
   177   117   116    2
   178    49    50    2
   179   135   127   am
   180   114   108   am
   181   127   126    1
   182    43    44    1
   183    43    42    1
   184    40    41    2
   185    44    45   ar
   186   110   107    1
   187    60    59    1
   188   108   109    2
   189   108   107    1
   190   107   106    1
   191   126   129    1
   192   126   125    1
   193   129   130    1
   194    58    57    2
   195    59    56    1
   196    57    56    1
   197   130   132   ar
   198   130   131   ar
   199    56    55    1
   200   132   134   ar
   201   131   133   ar
   202   134   133   ar
