@<TRIPOS>MOLECULE
tmp/2j4zB00.pdb
 175 165 0 0 0
SMALL
GASTEIGER

@<TRIPOS>ATOM
      1  N          7.9320   22.4800   23.8430 N.3    12  ARG12      -0.1245
      2  CA         8.4430   23.8210   24.0900 C.3    12  ARG12       0.1563
      3  C          7.5260   24.9060   23.5370 C.2    12  ARG12       0.2260
      4  O          6.7450   24.6700   22.6140 O.2    12  ARG12      -0.2867
      5  CB         9.8340   23.9900   23.4710 C.3    12  ARG12       0.0307
      6  CG         9.8550   23.9220   21.9500 C.3    12  ARG12       0.0489
      7  CD        11.1630   24.4760   21.3950 C.3    12  ARG12       0.2205
      8  NE        11.2520   24.3350   19.9440 N.pl3  12  ARG12      -0.0865
      9  CZ        11.3110   23.1660   19.3100 C.cat  12  ARG12       0.5346
     10  NH1       11.2920   22.0330   20.0010 N.pl3  12  ARG12       0.1354
     11  NH2       11.3870   23.1290   17.9850 N.pl3  12  ARG12       0.1354
     12  N          6.4070   28.3580   21.5350 N.3    14  LEU14      -0.1245
     13  CA         6.7710   28.8510   20.2140 C.3    14  LEU14       0.1561
     14  C          6.5550   30.3530   20.2490 C.2    14  LEU14       0.2260
     15  O          6.9610   31.0800   19.3450 O.2    14  LEU14      -0.2867
     16  CB         5.8870   28.2200   19.1340 C.3    14  LEU14       0.0270
     17  CG         6.0840   26.7330   18.8400 C.3    14  LEU14       0.0019
     18  CD1        5.0270   26.2630   17.8520 C.3    14  LEU14       0.0001
     19  CD2        7.4830   26.5060   18.2810 C.3    14  LEU14       0.0001
     20  N          1.6200   29.8390   22.7300 N.3    22  VAL22      -0.1245
     21  CA         1.4330   28.8350   21.7030 C.3    22  VAL22       0.1561
     22  C          2.5810   27.8550   21.8780 C.2    22  VAL22       0.2260
     23  O          3.7360   28.2590   22.0220 O.2    22  VAL22      -0.2867
     24  CB         1.4430   29.4720   20.2850 C.3    22  VAL22       0.0252
     25  CG1        2.6010   30.4490   20.1520 C.3    22  VAL22       0.0019
     26  CG2        1.5230   28.3830   19.2240 C.3    22  VAL22       0.0019
     27  N          0.7430   22.9780   16.4560 N.3    35  ALA35      -0.1245
     28  CA         0.9290   24.0840   17.3830 C.3    35  ALA35       0.1562
     29  C         -0.3670   24.2510   18.1680 C.2    35  ALA35       0.2260
     30  O         -1.4540   24.2750   17.5860 O.2    35  ALA35      -0.2867
     31  CB         1.2560   25.3670   16.6250 C.3    35  ALA35       0.0290
     32  N         -2.3430   26.7630   20.3870 N.3    37  LYS37      -0.1245
     33  CA        -2.4610   28.1450   20.8310 C.3    37  LYS37       0.1561
     34  C         -3.3820   28.1750   22.0480 C.2    37  LYS37       0.2260
     35  O         -4.4990   27.6600   22.0020 O.2    37  LYS37      -0.2867
     36  CB        -3.0410   29.0160   19.7080 C.3    37  LYS37       0.0271
     37  CG        -3.1450   30.4970   20.0500 C.3    37  LYS37       0.0035
     38  CD        -3.5240   31.3240   18.8270 C.3    37  LYS37       0.0206
     39  CE        -3.6140   32.8010   19.1780 C.3    37  LYS37       0.1093
     40  NZ        -3.9740   33.6340   18.0030 N.3    37  LYS37      -0.1314
     41  N         -2.3080   29.3410    7.2510 N.3    69  LEU69      -0.1245
     42  CA        -2.1300   28.4340    8.3820 C.3    69  LEU69       0.1561
     43  C         -3.4790   27.8370    8.7550 C.2    69  LEU69       0.2260
     44  O         -4.4350   28.5520    9.0720 O.2    69  LEU69      -0.2867
     45  CB        -1.5260   29.1600    9.5820 C.3    69  LEU69       0.0270
     46  CG        -0.9620   28.2210   10.6590 C.3    69  LEU69       0.0019
     47  CD1        0.2900   27.5210   10.1510 C.3    69  LEU69       0.0001
     48  CD2       -0.6460   29.0220   11.8880 C.3    69  LEU69       0.0001
     49  N         -3.6470   24.3050   15.8180 N.3    85  LEU85      -0.1231
     50  CA        -3.1280   24.8770   14.5810 C.3    85  LEU85       0.1693
     51  C         -2.0380   24.0730   13.8930 C.2    85  LEU85       0.2592
     52  O         -1.3070   23.2950   14.5170 O.2    85  LEU85      -0.2718
     53  CB        -2.5910   26.2850   14.8550 C.3    85  LEU85       0.0284
     54  CG        -3.5720   27.3150   15.4140 C.3    85  LEU85       0.0019
     55  CD1       -2.8030   28.4710   16.0440 C.3    85  LEU85       0.0001
     56  CD2       -4.4940   27.8060   14.3080 C.3    85  LEU85       0.0001
     57  N         -1.9410   24.2760   12.5850 N.am   86  GLU86      -0.1966
     58  CA        -0.9270   23.6280   11.7760 C.3    86  GLU86       0.1733
     59  C          0.4130   24.1660   12.2640 C.2    86  GLU86       0.2616
     60  O          0.5160   25.3300   12.6480 O.2    86  GLU86      -0.2715
     61  CB        -1.1570   23.9870   10.2960 C.3    86  GLU86       0.0429
     62  CG         0.0720   23.9300    9.4040 C.3    86  GLU86       0.1163
     63  CD        -0.2310   24.3600    7.9660 C.2    86  GLU86       0.3649
     64  OE1       -1.1590   25.1780    7.7600 O.co2  86  GLU86      -0.2457
     65  OE2        0.4680   23.8900    7.0450 O.co2  86  GLU86      -0.2457
     66  N          1.4310   23.3130   12.2740 N.am   87  TYR87      -0.1960
     67  CA         2.7610   23.7250   12.7050 C.3    87  TYR87       0.1771
     68  C          3.6130   24.1190   11.4980 C.2    87  TYR87       0.2619
     69  O          3.7440   23.3540   10.5480 O.2    87  TYR87      -0.2715
     70  CB         3.4490   22.5840   13.4700 C.3    87  TYR87       0.0574
     71  CG         4.8940   22.8630   13.8340 C.ar   87  TYR87      -0.0198
     72  CD1        5.2450   24.0100   14.5470 C.ar   87  TYR87      -0.0009
     73  CD2        5.9110   21.9770   13.4690 C.ar   87  TYR87      -0.0009
     74  CE1        6.5710   24.2730   14.8880 C.ar   87  TYR87       0.0417
     75  CE2        7.2490   22.2300   13.8080 C.ar   87  TYR87       0.0417
     76  CZ         7.5670   23.3790   14.5140 C.ar   87  TYR87       0.1957
     77  OH         8.8800   23.6550   14.8320 O.3    87  TYR87      -0.2866
     78  N          4.1770   25.3210   11.5400 N.am   88  ALA88      -0.1964
     79  CA         5.0320   25.8180   10.4640 C.3    88  ALA88       0.1713
     80  C          6.4690   25.7380   10.9820 C.2    88  ALA88       0.2458
     81  O          6.9170   26.6110   11.7150 O.2    88  ALA88      -0.2730
     82  CB         4.6630   27.2690   10.1210 C.3    88  ALA88       0.0333
     83  N          7.2100   24.6920   10.5840 N.am   89  PRO89      -0.2716
     84  CA         8.5990   24.4140   10.9720 C.3    89  PRO89       0.1536
     85  C          9.6600   25.4990   10.8140 C.2    89  PRO89       0.2598
     86  O         10.5130   25.6490   11.6820 O.2    89  PRO89      -0.2715
     87  CB         8.9570   23.1820   10.1360 C.3    89  PRO89       0.0310
     88  CG         7.6480   22.5300    9.8770 C.3    89  PRO89       0.0237
     89  CD         6.7510   23.7060    9.5910 C.3    89  PRO89       0.0939
     90  N          9.6200   26.2520    9.7180 N.am   90  LEU90      -0.1964
     91  CA        10.6570   27.2530    9.4750 C.3    90  LEU90       0.1728
     92  C         10.5350   28.6360   10.0990 C.2    90  LEU90       0.2617
     93  O         11.3310   29.5240    9.7970 O.2    90  LEU90      -0.2715
     94  CB        10.8840   27.3890    7.9680 C.3    90  LEU90       0.0311
     95  CG        11.2770   26.0710    7.2950 C.3    90  LEU90       0.0022
     96  CD1       11.6800   26.3250    5.8540 C.3    90  LEU90       0.0001
     97  CD2       12.4290   25.4440    8.0560 C.3    90  LEU90       0.0001
     98  N          9.5550   28.8300   10.9740 N.am   91  GLY91      -0.1940
     99  CA         9.4270   30.1260   11.6140 C.3    91  GLY91       0.2014
    100  C          8.8090   31.2180   10.7610 C.2    91  GLY91       0.2639
    101  O          8.1830   30.9500    9.7350 O.2    91  GLY91      -0.2714
    102  N          9.0010   32.4600   11.1870 N.am   92  THR92      -0.1950
    103  CA         8.4260   33.6100   10.4970 C.3    92  THR92       0.1897
    104  C          9.2650   34.1780    9.3610 C.2    92  THR92       0.2313
    105  O         10.4870   34.0190    9.3210 O.2    92  THR92      -0.2863
    106  CB         8.1590   34.7590   11.4810 C.3    92  THR92       0.1794
    107  OG1        9.4100   35.3110   11.9150 O.3    92  THR92      -0.2208
    108  CG2        7.3890   34.2540   12.6970 C.3    92  THR92       0.0378
    109  N         11.7710   36.9380   10.6090 N.3    95  ARG95      -0.1245
    110  CA        13.0660   36.4840   11.1100 C.3    95  ARG95       0.1563
    111  C         13.9930   36.2050    9.9350 C.2    95  ARG95       0.2260
    112  O         15.1720   36.5560    9.9640 O.2    95  ARG95      -0.2867
    113  CB        12.8960   35.2160   11.9510 C.3    95  ARG95       0.0307
    114  CG        14.1570   34.7990   12.7000 C.3    95  ARG95       0.0489
    115  CD        13.9630   33.4720   13.4260 C.3    95  ARG95       0.2205
    116  NE        15.1160   33.1150   14.2520 N.pl3  95  ARG95      -0.0865
    117  CZ        16.3590   32.9800   13.7940 C.cat  95  ARG95       0.5346
    118  NH1       16.6240   33.1720   12.5060 N.pl3  95  ARG95       0.1354
    119  NH2       17.3400   32.6490   14.6240 N.pl3  95  ARG95       0.1354
    120  N         17.5660   38.1600    9.0060 N.3    99  LYS99      -0.1245
    121  CA        18.6640   37.2380    8.7790 C.3    99  LYS99       0.1561
    122  C         19.3690   37.4690    7.4400 C.2    99  LYS99       0.2260
    123  O         20.5950   37.6030    7.3870 O.2    99  LYS99      -0.2867
    124  CB        18.0890   35.8250    8.8560 C.3    99  LYS99       0.0271
    125  CG        18.9950   34.6720    8.5200 C.3    99  LYS99       0.0035
    126  CD        18.2630   33.3940    8.9020 C.3    99  LYS99       0.0206
    127  CE        18.8980   32.1560    8.3160 C.3    99  LYS99       0.1093
    128  NZ        18.0440   30.9660    8.5860 N.3    99  LYS99      -0.1314
    129  N          6.0250   39.7330   10.1240 N.3   135  GLU135     -0.1231
    130  CA         5.8530   39.0970   11.4330 C.3   135  GLU135      0.1699
    131  C          4.6680   38.1490   11.5010 C.2   135  GLU135      0.2592
    132  O          4.6390   37.2520   12.3480 O.2   135  GLU135     -0.2718
    133  CB         5.7040   40.1490   12.5420 C.3   135  GLU135      0.0402
    134  CG         6.9210   41.0290   12.7330 C.3   135  GLU135      0.1161
    135  CD         6.8590   42.2940   11.9020 C.2   135  GLU135      0.3649
    136  OE1        6.5170   42.2060   10.7070 O.co2 135  GLU135     -0.2457
    137  OE2        7.1580   43.3770   12.4480 O.co2 135  GLU135     -0.2457
    138  N          3.6930   38.3380   10.6140 N.am  136  ASN136     -0.1974
    139  CA         2.5090   37.4850   10.6010 C.3   136  ASN136      0.1688
    140  C          2.5460   36.4010    9.5300 C.2   136  ASN136      0.2292
    141  O          1.5290   35.7640    9.2420 O.2   136  ASN136     -0.2864
    142  CB         1.2470   38.3240   10.4120 C.3   136  ASN136      0.1181
    143  CG         0.9860   39.2400   11.5770 C.2   136  ASN136      0.2629
    144  OD1        1.3090   38.9140   12.7190 O.2   136  ASN136     -0.2716
    145  ND2        0.3820   40.3890   11.3040 N.am  136  ASN136     -0.0877
    146  N          4.2900   32.8360    8.3770 N.3   138  LEU138     -0.1245
    147  CA         5.0740   31.6750    8.7950 C.3   138  LEU138      0.1561
    148  C          5.5650   30.8940    7.5810 C.2   138  LEU138      0.2260
    149  O          5.1350   31.1370    6.4560 O.2   138  LEU138     -0.2867
    150  CB         4.2360   30.7680    9.7040 C.3   138  LEU138      0.0270
    151  CG         3.8900   31.4480   11.0330 C.3   138  LEU138      0.0019
    152  CD1        2.8120   30.6730   11.7690 C.3   138  LEU138      0.0001
    153  CD2        5.1480   31.5540   11.8670 C.3   138  LEU138      0.0001
    154  N         -0.6820   33.8230    8.8550 N.3   148  ALA148     -0.1245
    155  CA        -1.2660   33.5510   10.1620 C.3   148  ALA148      0.1562
    156  C         -1.5660   34.8790   10.8420 C.2   148  ALA148      0.2260
    157  O         -0.8660   35.2820   11.7710 O.2   148  ALA148     -0.2867
    158  CB        -0.2860   32.7430   11.0040 C.3   148  ALA148      0.0290
    159  N         -0.0520   35.8810   20.5840 N.3   154  VAL154     -0.1231
    160  CA         0.3800   34.9090   21.5740 C.3   154  VAL154      0.1692
    161  C          1.8920   34.7670   21.4590 C.2   154  VAL154      0.2592
    162  O          2.4850   33.8150   21.9640 O.2   154  VAL154     -0.2718
    163  CB        -0.2950   33.5360   21.3600 C.3   154  VAL154      0.0266
    164  CG1       -1.7440   33.5950   21.8240 C.3   154  VAL154      0.0020
    165  CG2       -0.2250   33.1420   19.8930 C.3   154  VAL154      0.0020
    166  N          2.5070   35.7280   20.7760 N.am  155  HIS155     -0.1976
    167  CA         3.9510   35.7420   20.6020 C.3   155  HIS155      0.1656
    168  C          4.4770   37.1570   20.8230 C.2   155  HIS155      0.2291
    169  O          3.7170   38.1260   20.7860 O.2   155  HIS155     -0.2864
    170  CB         4.3370   35.2400   19.2060 C.3   155  HIS155      0.0771
    171  CG         3.8890   36.1290   18.0870 C.ar  155  HIS155      0.0820
    172  ND1        2.5600   36.3730   17.8130 N.ar  155  HIS155     -0.2267
    173  CD2        4.5960   36.8080   17.1520 C.ar  155  HIS155      0.1154
    174  CE1        2.4680   37.1610   16.7560 C.ar  155  HIS155      0.1986
    175  NE2        3.6890   37.4390   16.3360 N.ar  155  HIS155     -0.2212
@<TRIPOS>BOND
     1    96    95    1
     2   149   148    2
     3    65    63   ar
     4    41    42    1
     5    95    94    1
     6    95    97    1
     7   123   122    2
     8   122   121    1
     9   148   147    1
    10    64    63   ar
    11    63    62    1
    12    94    91    1
    13   127   128    1
    14   127   126    1
    15   146   147    1
    16    42    43    1
    17    42    45    1
    18   125   124    1
    19   125   126    1
    20    43    44    2
    21   121   124    1
    22   121   120    1
    23   147   150    1
    24   154   155    1
    25   141   140    2
    26   105   104    2
    27   104   103    1
    28    62    61    1
    29    91    90    1
    30    91    92    1
    31   140   139    1
    32    45    46    1
    33    89    88    1
    34    89    83    1
    35   150   151    1
    36    90    85   am
    37   101   100    2
    38    93    92    2
    39    88    87    1
    40   111   112    2
    41   111   110    1
    42    92    98   am
    43    82    79    1
    44   129   130    1
    45    87    84    1
    46    47    46    1
    47   155   156    1
    48   155   158    1
    49    61    58    1
    50   142   139    1
    51   142   143    1
    52    79    80    1
    53    79    78    1
    54   103   102    1
    55   103   106    1
    56    69    68    2
    57    83    84    1
    58    83    80   am
    59   139   138    1
    60   109   110    1
    61   138   131   am
    62    46    48    1
    63   136   135   ar
    64   100   102   am
    65   100    99    1
    66    85    84    1
    67    85    86    2
    68   156   157    2
    69    98    99    1
    70    80    81    2
    71   151   152    1
    72   151   153    1
    73   110   113    1
    74   145   143   am
    75   130   131    1
    76   130   133    1
    77   106   107    1
    78   106   108    1
    79    68    78   am
    80    68    67    1
    81   131   132    2
    82   143   144    2
    83    58    59    1
    84    58    57    1
    85   135   137   ar
    86   135   134    1
    87   113   114    1
    88    59    66   am
    89    59    60    2
    90    66    67    1
    91   118   117    1
    92   133   134    1
    93    57    51   am
    94   114   115    1
    95    67    70    1
    96   115   116    1
    97    73    75   ar
    98    73    71   ar
    99    70    71    1
   100   117   116    2
   101   117   119    1
   102    75    76   ar
   103    71    72   ar
   104    51    52    2
   105    51    50    1
   106    56    54    1
   107    76    77    1
   108    76    74   ar
   109    72    74   ar
   110    50    53    1
   111    50    49    1
   112    53    54    1
   113    54    55    1
   114   175   174   ar
   115   175   173   ar
   116    27    28    1
   117    31    28    1
   118   174   172   ar
   119   173   171   ar
   120    28    29    1
   121    30    29    2
   122   172   171   ar
   123    18    17    1
   124    11     9    1
   125    40    39    1
   126   171   170    1
   127    19    17    1
   128    38    39    1
   129    38    37    1
   130    17    16    1
   131    16    13    1
   132   170   167    1
   133    26    24    1
   134     9     8    2
   135     9    10    1
   136    15    14    2
   137    36    37    1
   138    36    33    1
   139   165   163    1
   140     8     7    1
   141    25    24    1
   142    13    14    1
   143    13    12    1
   144    24    21    1
   145    32    33    1
   146   159   160    1
   147   167   166    1
   148   167   168    1
   149   166   161   am
   150   169   168    2
   151    33    34    1
   152   163   160    1
   153   163   164    1
   154     7     6    1
   155   161   160    1
   156   161   162    2
   157    21    22    1
   158    21    20    1
   159    22    23    2
   160     6     5    1
   161    35    34    2
   162     4     3    2
   163     5     2    1
   164     3     2    1
   165     1     2    1
