@<TRIPOS>MOLECULE
tmp/2j50A00.pdb
 194 185 0 0 0
SMALL
GASTEIGER

@<TRIPOS>ATOM
      1  N         23.6150   35.9550   37.0550 N.3    10  ARG10      -0.1245
      2  CA        22.3010   35.6070   36.5230 C.3    10  ARG10       0.1563
      3  C         22.4220   35.1580   35.0710 C.2    10  ARG10       0.2260
      4  O         23.2980   35.6300   34.3370 O.2    10  ARG10      -0.2867
      5  CB        21.3820   36.8150   36.5900 C.3    10  ARG10       0.0307
      6  CG        21.9070   37.9820   35.7770 C.3    10  ARG10       0.0489
      7  CD        21.3130   39.2870   36.2560 C.3    10  ARG10       0.2205
      8  NE        21.8770   40.4450   35.5700 N.pl3  10  ARG10      -0.0865
      9  CZ        21.7640   40.6570   34.2680 C.cat  10  ARG10       0.5346
     10  NH1       21.1150   39.7820   33.5090 N.pl3  10  ARG10       0.1354
     11  NH2       22.2680   41.7590   33.7370 N.pl3  10  ARG10       0.1354
     12  N         21.8340   34.9670   31.1830 N.3    12  LEU12      -0.1231
     13  CA        21.5870   36.0420   30.2230 C.3    12  LEU12       0.1693
     14  C         20.6780   35.6960   29.0640 C.2    12  LEU12       0.2593
     15  O         20.0340   36.5730   28.5130 O.2    12  LEU12      -0.2718
     16  CB        22.9090   36.5550   29.6550 C.3    12  LEU12       0.0284
     17  CG        23.7000   37.5540   30.4970 C.3    12  LEU12       0.0019
     18  CD1       25.1510   37.5430   30.0700 C.3    12  LEU12       0.0001
     19  CD2       23.0990   38.9420   30.3480 C.3    12  LEU12       0.0001
     20  N         20.6340   34.4310   28.6780 N.am   13  GLY13      -0.1942
     21  CA        19.7890   34.0400   27.5680 C.3    13  GLY13       0.2014
     22  C         20.1490   32.6320   27.1490 C.2    13  GLY13       0.2639
     23  O         21.1740   32.1020   27.5840 O.2    13  GLY13      -0.2714
     24  N         19.3230   32.0130   26.3140 N.am   14  LYS14      -0.1963
     25  CA        19.6020   30.6550   25.8750 C.3    14  LYS14       0.1728
     26  C         20.1550   30.6650   24.4560 C.2    14  LYS14       0.2616
     27  O         19.9690   31.6360   23.7220 O.2    14  LYS14      -0.2715
     28  CB        18.3270   29.8010   25.9670 C.3    14  LYS14       0.0311
     29  CG        17.8160   29.6210   27.3950 C.3    14  LYS14       0.0038
     30  CD        16.4610   28.9030   27.4620 C.3    14  LYS14       0.0206
     31  CE        15.9740   28.6900   28.9180 C.3    14  LYS14       0.1093
     32  NZ        16.8340   27.7660   29.7520 N.3    14  LYS14      -0.1314
     33  N         20.8470   29.5880   24.0880 N.am   15  GLY15      -0.1955
     34  CA        21.4200   29.4750   22.7570 C.3    15  GLY15       0.1869
     35  C         21.0220   28.1790   22.0670 C.2    15  GLY15       0.2309
     36  O         20.1980   27.4290   22.5930 O.2    15  GLY15      -0.2863
     37  N         23.9090   31.0740   28.4700 N.3    20  VAL20      -0.1245
     38  CA        25.0080   32.0290   28.5700 C.3    20  VAL20       0.1561
     39  C         24.7200   32.9020   29.7950 C.2    20  VAL20       0.2260
     40  O         23.6420   33.4850   29.9130 O.2    20  VAL20      -0.2867
     41  CB        25.1360   32.9010   27.2760 C.3    20  VAL20       0.0252
     42  CG1       23.8370   33.6210   26.9990 C.3    20  VAL20       0.0019
     43  CG2       26.2820   33.8900   27.4120 C.3    20  VAL20       0.0019
     44  N         30.8090   37.5610   30.0240 N.3    33  ALA33      -0.1245
     45  CA        29.7660   36.5780   29.7610 C.3    33  ALA33       0.1562
     46  C         30.3500   35.2010   29.5810 C.2    33  ALA33       0.2260
     47  O         31.3220   35.0300   28.8550 O.2    33  ALA33      -0.2867
     48  CB        29.0040   36.9590   28.5250 C.3    33  ALA33       0.0290
     49  N         29.6130   31.6690   28.1090 N.3    35  LYS35      -0.1245
     50  CA        28.6860   30.9550   27.2650 C.3    35  LYS35       0.1561
     51  C         28.9670   29.4790   27.3280 C.2    35  LYS35       0.2260
     52  O         30.0800   29.0370   27.0600 O.2    35  LYS35      -0.2867
     53  CB        28.7850   31.4370   25.8170 C.3    35  LYS35       0.0271
     54  CG        27.6960   30.8710   24.9170 C.3    35  LYS35       0.0035
     55  CD        27.6060   31.6170   23.6170 C.3    35  LYS35       0.0206
     56  CE        26.3360   31.2260   22.8800 C.3    35  LYS35       0.1093
     57  NZ        26.1360   31.9980   21.6340 N.3    35  LYS35      -0.1314
     58  N         32.2650   41.4410   19.0860 N.3    67  LEU67      -0.1245
     59  CA        32.2350   40.8290   20.4080 C.3    67  LEU67       0.1561
     60  C         33.5600   40.1540   20.6830 C.2    67  LEU67       0.2260
     61  O         33.9420   39.1960   20.0050 O.2    67  LEU67      -0.2867
     62  CB        31.1050   39.8070   20.5210 C.3    67  LEU67       0.0270
     63  CG        30.7610   39.4470   21.9630 C.3    67  LEU67       0.0019
     64  CD1       30.3630   40.7240   22.7260 C.3    67  LEU67       0.0001
     65  CD2       29.6420   38.4230   21.9630 C.3    67  LEU67       0.0001
     66  N         33.3910   35.4960   27.0460 N.3    83  LEU83      -0.1231
     67  CA        32.9880   36.5810   26.1670 C.3    83  LEU83       0.1693
     68  C         32.8810   37.9640   26.7970 C.2    83  LEU83       0.2592
     69  O         32.6250   38.0980   27.9830 O.2    83  LEU83      -0.2718
     70  CB        31.6490   36.2220   25.5330 C.3    83  LEU83       0.0284
     71  CG        31.6960   34.9850   24.6430 C.3    83  LEU83       0.0019
     72  CD1       30.3420   34.2990   24.6120 C.3    83  LEU83       0.0001
     73  CD2       32.1710   35.4080   23.2540 C.3    83  LEU83       0.0001
     74  N         33.0820   38.9980   25.9890 N.am   84  GLU84      -0.1966
     75  CA        32.9640   40.3630   26.4690 C.3    84  GLU84       0.1733
     76  C         31.4960   40.5460   26.8130 C.2    84  GLU84       0.2616
     77  O         30.6500   39.8990   26.2220 O.2    84  GLU84      -0.2715
     78  CB        33.3610   41.3510   25.3810 C.3    84  GLU84       0.0429
     79  CG        32.4200   42.5230   25.2890 C.3    84  GLU84       0.1163
     80  CD        32.9410   43.6190   24.4000 C.2    84  GLU84       0.3649
     81  OE1       33.5390   43.2920   23.3490 O.co2  84  GLU84      -0.2457
     82  OE2       32.7370   44.8050   24.7480 O.co2  84  GLU84      -0.2457
     83  N         31.1910   41.4200   27.7650 N.am   85  TYR85      -0.1960
     84  CA        29.8070   41.6370   28.1470 C.3    85  TYR85       0.1771
     85  C         29.2410   42.9230   27.5620 C.2    85  TYR85       0.2619
     86  O         29.7470   44.0120   27.8170 O.2    85  TYR85      -0.2715
     87  CB        29.6690   41.6620   29.6720 C.3    85  TYR85       0.0574
     88  CG        28.2920   42.0780   30.1520 C.ar   85  TYR85      -0.0198
     89  CD1       27.1960   41.2310   30.0140 C.ar   85  TYR85      -0.0009
     90  CD2       28.0720   43.3560   30.6680 C.ar   85  TYR85      -0.0009
     91  CE1       25.9130   41.6480   30.3650 C.ar   85  TYR85       0.0417
     92  CE2       26.8020   43.7840   31.0210 C.ar   85  TYR85       0.0417
     93  CZ        25.7230   42.9290   30.8590 C.ar   85  TYR85       0.1957
     94  OH        24.4480   43.3920   31.1180 O.3    85  TYR85      -0.2866
     95  N         28.1900   42.7860   26.7640 N.am   86  ALA86      -0.1964
     96  CA        27.5300   43.9290   26.1580 C.3    86  ALA86       0.1713
     97  C         26.3550   44.2220   27.0710 C.2    86  ALA86       0.2458
     98  O         25.4290   43.4190   27.1750 O.2    86  ALA86      -0.2730
     99  CB        27.0440   43.5800   24.7590 C.3    86  ALA86       0.0333
    100  N         26.3870   45.3760   27.7560 N.am   87  PRO87      -0.2716
    101  CA        25.3530   45.8340   28.6940 C.3    87  PRO87       0.1536
    102  C         24.0440   46.3850   28.1200 C.2    87  PRO87       0.2598
    103  O         23.0180   46.3300   28.7980 O.2    87  PRO87      -0.2715
    104  CB        26.0780   46.8960   29.5250 C.3    87  PRO87       0.0310
    105  CG        27.5480   46.5900   29.3240 C.3    87  PRO87       0.0237
    106  CD        27.5940   46.2090   27.8760 C.3    87  PRO87       0.0939
    107  N         24.0600   46.9150   26.8970 N.am   88  LEU88      -0.1964
    108  CA        22.8440   47.4910   26.3270 C.3    88  LEU88       0.1728
    109  C         21.9270   46.5330   25.5690 C.2    88  LEU88       0.2617
    110  O         20.8450   46.9310   25.1100 O.2    88  LEU88      -0.2715
    111  CB        23.1860   48.6920   25.4410 C.3    88  LEU88       0.0311
    112  CG        24.0190   49.8200   26.0780 C.3    88  LEU88       0.0022
    113  CD1       23.8800   51.0840   25.2500 C.3    88  LEU88       0.0001
    114  CD2       23.5520   50.0930   27.4800 C.3    88  LEU88       0.0001
    115  N         22.3550   45.2760   25.4470 N.am   89  GLY89      -0.1940
    116  CA        21.5470   44.2680   24.7740 C.3    89  GLY89       0.2014
    117  C         21.7220   44.1990   23.2720 C.2    89  GLY89       0.2639
    118  O         22.7580   44.5950   22.7350 O.2    89  GLY89      -0.2714
    119  N         20.7060   43.6960   22.5810 N.am   90  THR90      -0.1950
    120  CA        20.7910   43.5930   21.1320 C.3    90  THR90       0.1897
    121  C         20.1850   44.7680   20.3810 C.2    90  THR90       0.2313
    122  O         19.3630   45.5280   20.9040 O.2    90  THR90      -0.2863
    123  CB        20.1020   42.3400   20.5900 C.3    90  THR90       0.1794
    124  OG1       18.6830   42.5350   20.6190 O.3    90  THR90      -0.2208
    125  CG2       20.4940   41.1210   21.4050 C.3    90  THR90       0.0378
    126  N         16.4250   44.3500   19.6650 N.3    93  ARG93      -0.1245
    127  CA        15.6010   44.8170   20.7810 C.3    93  ARG93       0.1563
    128  C         15.4070   46.3340   20.6950 C.2    93  ARG93       0.2260
    129  O         14.2940   46.8290   20.5870 O.2    93  ARG93      -0.2867
    130  CB        16.2880   44.4510   22.0970 C.3    93  ARG93       0.0307
    131  CG        15.3980   44.5690   23.2940 C.3    93  ARG93       0.0489
    132  CD        14.1790   43.7150   23.0940 C.3    93  ARG93       0.2205
    133  NE        12.9730   44.3800   23.5770 N.pl3  93  ARG93      -0.0865
    134  CZ        11.7430   44.0540   23.1870 C.cat  93  ARG93       0.5346
    135  NH1       11.5730   43.0700   22.3060 N.pl3  93  ARG93       0.1354
    136  NH2       10.6860   44.7060   23.6710 N.pl3  93  ARG93       0.1354
    137  N         11.9350   48.1350   19.9240 N.3    97  LYS97      -0.1245
    138  CA        11.5640   49.1670   20.8820 C.3    97  LYS97       0.1561
    139  C         11.2000   50.4870   20.1930 C.2    97  LYS97       0.2260
    140  O         10.0810   50.9580   20.3140 O.2    97  LYS97      -0.2867
    141  CB        12.7270   49.3970   21.8490 C.3    97  LYS97       0.0271
    142  CG        12.5690   50.6040   22.7510 C.3    97  LYS97       0.0035
    143  CD        13.8930   50.9820   23.4390 C.3    97  LYS97       0.0206
    144  CE        13.7340   52.2170   24.3480 C.3    97  LYS97       0.1093
    145  NZ        15.0170   52.6850   24.9560 N.3    97  LYS97      -0.1314
    146  N         19.3020   40.4350   15.4120 N.3   133  GLU133     -0.1231
    147  CA        19.2940   39.5650   16.5790 C.3   133  GLU133      0.1699
    148  C         20.7000   39.1490   17.0220 C.2   133  GLU133      0.2592
    149  O         20.8790   38.6460   18.1310 O.2   133  GLU133     -0.2718
    150  CB        18.4780   38.3070   16.2760 C.3   133  GLU133      0.0402
    151  CG        17.0340   38.5690   15.8680 C.3   133  GLU133      0.1161
    152  CD        16.7810   38.3720   14.3810 C.2   133  GLU133      0.3649
    153  OE1       17.0320   37.2510   13.8770 O.co2 133  GLU133     -0.2457
    154  OE2       16.3230   39.3360   13.7230 O.co2 133  GLU133     -0.2457
    155  N         21.6900   39.3570   16.1560 N.am  134  ASN134     -0.1974
    156  CA        23.0730   38.9740   16.4400 C.3   134  ASN134      0.1688
    157  C         23.9760   40.1450   16.6690 C.2   134  ASN134      0.2292
    158  O         25.1920   40.0110   16.5760 O.2   134  ASN134     -0.2864
    159  CB        23.6760   38.1700   15.2940 C.3   134  ASN134      0.1181
    160  CG        23.0020   36.8400   15.0940 C.2   134  ASN134      0.2629
    161  OD1       22.7750   36.0870   16.0480 O.2   134  ASN134     -0.2716
    162  ND2       22.6900   36.5290   13.8380 N.am  134  ASN134     -0.0877
    163  N         24.9430   43.1050   19.3750 N.3   136  LEU136     -0.1245
    164  CA        24.8850   43.5730   20.7560 C.3   136  LEU136      0.1561
    165  C         25.3540   45.0270   20.8550 C.2   136  LEU136      0.2260
    166  O         25.9520   45.5650   19.9230 O.2   136  LEU136     -0.2867
    167  CB        25.7610   42.6760   21.6280 C.3   136  LEU136      0.0270
    168  CG        25.2660   41.2370   21.7930 C.3   136  LEU136      0.0019
    169  CD1       26.3860   40.3350   22.2830 C.3   136  LEU136      0.0001
    170  CD2       24.1080   41.2220   22.7570 C.3   136  LEU136      0.0001
    171  N         28.1920   39.7920   17.2930 N.3   146  ALA146     -0.1231
    172  CA        28.2980   38.7260   18.2790 C.3   146  ALA146      0.1694
    173  C         27.9780   37.3420   17.7920 C.2   146  ALA146      0.2592
    174  O         28.2140   36.3780   18.5130 O.2   146  ALA146     -0.2718
    175  CB        27.4470   39.0440   19.4890 C.3   146  ALA146      0.0304
    176  N         27.4220   37.1950   16.6020 N.am  147  ASP147     -0.1960
    177  CA        27.1950   35.8250   16.1660 C.3   147  ASP147      0.1840
    178  C         28.6070   35.2510   16.0470 C.2   147  ASP147      0.2622
    179  O         29.5870   35.9830   16.2080 O.2   147  ASP147     -0.2715
    180  CB        26.4660   35.7580   14.8180 C.3   147  ASP147      0.1450
    181  CG        27.1820   36.5070   13.7190 C.2   147  ASP147      0.3671
    182  OD1       28.4070   36.3260   13.5740 O.co2 147  ASP147     -0.2456
    183  OD2       26.5060   37.2660   12.9900 O.co2 147  ASP147     -0.2456
    184  N         28.7350   33.9620   15.7790 N.am  148  PHE148     -0.1974
    185  CA        30.0630   33.3900   15.6680 C.3   148  PHE148      0.1639
    186  C         30.2950   32.9140   14.2400 C.2   148  PHE148      0.2290
    187  O         31.0510   31.9760   14.0070 O.2   148  PHE148     -0.2864
    188  CB        30.1990   32.2410   16.6710 C.3   148  PHE148      0.0560
    189  CG        29.8670   32.6390   18.0920 C.ar  148  PHE148     -0.0200
    190  CD1       29.2670   31.7310   18.9660 C.ar  148  PHE148     -0.0042
    191  CD2       30.1330   33.9390   18.5510 C.ar  148  PHE148     -0.0042
    192  CE1       28.9330   32.1120   20.2690 C.ar  148  PHE148     -0.0003
    193  CE2       29.8030   34.3300   19.8530 C.ar  148  PHE148     -0.0003
    194  CZ        29.2020   33.4170   20.7110 C.ar  148  PHE148     -0.0000
@<TRIPOS>BOND
     1   183   181   ar
     2   182   181   ar
     3   181   180    1
     4   154   152   ar
     5   162   160   am
     6   153   152   ar
     7   187   186    2
     8   186   185    1
     9   152   151    1
    10   180   177    1
    11   160   159    1
    12   160   161    2
    13   159   156    1
    14   146   147    1
    15   185   184    1
    16   185   188    1
    17   184   178   am
    18   151   150    1
    19   178   177    1
    20   178   179    2
    21   155   156    1
    22   155   148   am
    23   177   176    1
    24   150   147    1
    25   156   157    1
    26   158   157    2
    27   147   148    1
    28   176   173   am
    29   188   189    1
    30   148   149    2
    31   171   172    1
    32   173   172    1
    33   173   174    2
    34   189   191   ar
    35   189   190   ar
    36   172   175    1
    37   191   193   ar
    38   190   192   ar
    39    58    59    1
    40   163   164    1
    41   126   127    1
    42   193   194   ar
    43   166   165    2
    44   137   138    1
    45    61    60    2
    46   139   140    2
    47   139   138    1
    48   192   194   ar
    49   121   122    2
    50   121   120    1
    51    59    62    1
    52    59    60    1
    53    62    63    1
    54   129   128    2
    55   123   124    1
    56   123   120    1
    57   123   125    1
    58   128   127    1
    59   164   165    1
    60   164   167    1
    61   127   130    1
    62   138   141    1
    63   120   119    1
    64   167   168    1
    65    57    56    1
    66   168   169    1
    67   168   170    1
    68   141   142    1
    69    63    65    1
    70    63    64    1
    71    35    36    2
    72    35    34    1
    73   130   131    1
    74   135   134    1
    75   119   117   am
    76   118   117    2
    77   142   143    1
    78    34    33    1
    79    56    55    1
    80   132   131    1
    81   132   133    1
    82   134   133    2
    83   134   136    1
    84    73    71    1
    85   117   116    1
    86    81    80   ar
    87   143   144    1
    88    55    54    1
    89    27    26    2
    90    33    26   am
    91   144   145    1
    92    80    82   ar
    93    80    79    1
    94    26    25    1
    95    72    71    1
    96    71    70    1
    97    99    96    1
    98   116   115    1
    99    54    53    1
   100   110   109    2
   101   113   112    1
   102    79    78    1
   103    78    75    1
   104   111   112    1
   105   111   108    1
   106   115   109   am
   107    70    67    1
   108   109   108    1
   109    53    50    1
   110    25    28    1
   111    25    24    1
   112    28    29    1
   113    74    75    1
   114    74    68   am
   115   112   114    1
   116    96    95    1
   117    96    97    1
   118    67    68    1
   119    67    66    1
   120    77    76    2
   121    24    22   am
   122   108   107    1
   123    75    76    1
   124    95    85   am
   125    68    69    2
   126    76    83   am
   127   107   102   am
   128    42    41    1
   129    52    51    2
   130    97    98    2
   131    97   100   am
   132    22    21    1
   133    22    23    2
   134    50    51    1
   135    50    49    1
   136    41    43    1
   137    41    38    1
   138    29    30    1
   139    30    31    1
   140    85    86    2
   141    85    84    1
   142    21    20    1
   143   100   106    1
   144   100   101    1
   145    83    84    1
   146   106   105    1
   147   102   101    1
   148   102   103    2
   149    84    87    1
   150    37    38    1
   151    15    14    2
   152    48    45    1
   153    38    39    1
   154    20    14   am
   155   101   104    1
   156    47    46    2
   157    31    32    1
   158    14    13    1
   159   105   104    1
   160    46    45    1
   161    16    13    1
   162    16    17    1
   163    87    88    1
   164    45    44    1
   165    39    40    2
   166    89    88   ar
   167    89    91   ar
   168    18    17    1
   169    88    90   ar
   170    13    12    1
   171    19    17    1
   172    91    93   ar
   173    90    92   ar
   174    93    92   ar
   175    93    94    1
   176    10     9    1
   177    11     9    1
   178     9     8    2
   179     4     3    2
   180     3     2    1
   181     8     7    1
   182     6     7    1
   183     6     5    1
   184     2     5    1
   185     2     1    1
