@<TRIPOS>MOLECULE
tmp/2j51A00.pdb
 135 126 0 0 0
SMALL
GASTEIGER

@<TRIPOS>ATOM
      1  N        -33.7300   57.5150   -8.7780 N.3    19  GLU19      -0.1231
      2  CA       -33.3540   56.3510   -9.5830 C.3    19  GLU19       0.1699
      3  C        -32.0640   55.7260   -9.0550 C.2    19  GLU19       0.2592
      4  O        -31.1140   56.4360   -8.7400 O.2    19  GLU19      -0.2718
      5  CB       -33.1590   56.7530  -11.0480 C.3    19  GLU19       0.0402
      6  CG       -34.4290   57.2280  -11.7630 C.3    19  GLU19       0.1161
      7  CD       -34.2090   57.5080  -13.2580 C.2    19  GLU19       0.3649
      8  OE1      -35.1370   58.0530  -13.8990 O.co2  19  GLU19      -0.2457
      9  OE2      -33.1200   57.1910  -13.7910 O.co2  19  GLU19      -0.2457
     10  N        -32.0500   54.4020   -8.9540 N.am   20  LEU20      -0.1980
     11  CA       -30.8590   53.6420   -8.5700 C.3    20  LEU20       0.1596
     12  C        -30.1050   53.1080   -9.7890 C.2    20  LEU20       0.2287
     13  O        -28.8720   53.0140   -9.7910 O.2    20  LEU20      -0.2864
     14  CB       -31.2540   52.4590   -7.6880 C.3    20  LEU20       0.0297
     15  CG       -31.8840   52.7950   -6.3380 C.3    20  LEU20       0.0022
     16  CD1      -32.1740   51.5000   -5.5830 C.3    20  LEU20       0.0001
     17  CD2      -30.9500   53.7220   -5.5470 C.3    20  LEU20       0.0001
     18  N        -34.8340   51.1210  -12.3490 N.3    28  VAL28      -0.1245
     19  CA       -34.9930   50.6900  -10.9580 C.3    28  VAL28       0.1561
     20  C        -34.9410   51.9620  -10.1110 C.2    28  VAL28       0.2260
     21  O        -34.0340   52.7800  -10.2720 O.2    28  VAL28      -0.2867
     22  CB       -33.8630   49.7310  -10.5070 C.3    28  VAL28       0.0252
     23  CG1      -34.0520   49.2970   -9.0430 C.3    28  VAL28       0.0019
     24  CG2      -33.7680   48.5170  -11.4420 C.3    28  VAL28       0.0019
     25  N        -35.4170   49.1010   -3.1150 N.3    41  ALA41      -0.1245
     26  CA       -35.2500   49.1820   -4.5570 C.3    41  ALA41       0.1562
     27  C        -36.5650   48.7110   -5.1980 C.2    41  ALA41       0.2260
     28  O        -37.1360   47.6740   -4.8170 O.2    41  ALA41      -0.2867
     29  CB       -34.0510   48.3140   -5.0320 C.3    41  ALA41       0.0290
     30  N        -38.1030   47.6800   -8.6770 N.3    43  LYS43      -0.1245
     31  CA       -38.1930   47.2800  -10.0720 C.3    43  LYS43       0.1561
     32  C        -39.6240   47.5520  -10.5750 C.2    43  LYS43       0.2260
     33  O        -40.5980   47.2020   -9.9010 O.2    43  LYS43      -0.2867
     34  CB       -37.8500   45.7950  -10.2280 C.3    43  LYS43       0.0271
     35  CG       -36.4040   45.4410   -9.8780 C.3    43  LYS43       0.0035
     36  CD       -36.2120   43.9620   -9.5330 C.3    43  LYS43       0.0206
     37  CE       -36.4540   43.0500  -10.7030 C.3    43  LYS43       0.1093
     38  NZ       -35.3580   43.1530  -11.7210 N.3    43  LYS43      -0.1314
     39  N        -31.1940   39.2120   -0.4280 N.3    72  VAL72      -0.1245
     40  CA       -32.1920   40.2830   -0.3240 C.3    72  VAL72       0.1561
     41  C        -33.6090   39.7210   -0.1790 C.2    72  VAL72       0.2260
     42  O        -33.9520   38.6870   -0.7790 O.2    72  VAL72      -0.2867
     43  CB       -32.1380   41.2900   -1.5260 C.3    72  VAL72       0.0252
     44  CG1      -30.7840   41.9890   -1.5740 C.3    72  VAL72       0.0019
     45  CG2      -32.4730   40.6240   -2.8510 C.3    72  VAL72       0.0019
     46  N        -37.7200   45.4070   -3.0720 N.3    88  ILE88      -0.1231
     47  CA       -36.6720   44.5440   -2.5490 C.3    88  ILE88       0.1692
     48  C        -35.9380   45.3190   -1.4590 C.2    88  ILE88       0.2592
     49  O        -35.7330   46.5280   -1.6070 O.2    88  ILE88      -0.2718
     50  CB       -35.7100   44.1260   -3.7170 C.3    88  ILE88       0.0266
     51  CG1      -36.4830   43.3260   -4.7820 C.3    88  ILE88       0.0019
     52  CG2      -34.5280   43.3480   -3.1960 C.3    88  ILE88       0.0020
     53  CD1      -35.7660   43.2280   -6.1520 C.3    88  ILE88       0.0001
     54  N        -35.5630   44.6610   -0.3530 N.am   89  GLU89      -0.1966
     55  CA       -34.8610   45.3940    0.7000 C.3    89  GLU89       0.1733
     56  C        -33.6850   46.1290    0.1490 C.2    89  GLU89       0.2616
     57  O        -32.9060   45.5890   -0.6480 O.2    89  GLU89      -0.2715
     58  CB       -34.4640   44.5830    1.9560 C.3    89  GLU89       0.0429
     59  CG       -33.4620   43.5580    1.8180 C.3    89  GLU89       0.1163
     60  CD       -33.1370   42.8460    3.1160 C.2    89  GLU89       0.3649
     61  OE1      -32.8470   41.6320    3.0210 O.co2  89  GLU89      -0.2457
     62  OE2      -33.0860   43.4750    4.2050 O.co2  89  GLU89      -0.2457
     63  N        -33.5800   47.3780    0.5790 N.am   90  PHE90      -0.1960
     64  CA       -32.5800   48.2990    0.0650 C.3    90  PHE90       0.1771
     65  C        -31.1910   48.0030    0.6430 C.2    90  PHE90       0.2620
     66  O        -31.0460   47.7830    1.8460 O.2    90  PHE90      -0.2715
     67  CB       -33.0100   49.7260    0.4130 C.3    90  PHE90       0.0574
     68  CG       -32.1060   50.7780   -0.1290 C.ar   90  PHE90      -0.0200
     69  CD1      -31.9960   50.9650   -1.5020 C.ar   90  PHE90      -0.0042
     70  CD2      -31.3720   51.5820    0.7230 C.ar   90  PHE90      -0.0042
     71  CE1      -31.1340   51.9300   -2.0210 C.ar   90  PHE90      -0.0003
     72  CE2      -30.5350   52.5690    0.2300 C.ar   90  PHE90      -0.0003
     73  CZ       -30.4010   52.7420   -1.1460 C.ar   90  PHE90      -0.0000
     74  N        -30.1720   48.0290   -0.2180 N.am   91  CYS91      -0.1954
     75  CA       -28.7790   47.8540    0.1920 C.3    91  CYS91       0.1843
     76  C        -28.0660   49.1550   -0.1370 C.2    91  CYS91       0.2625
     77  O        -27.8350   49.4680   -1.3030 O.2    91  CYS91      -0.2714
     78  CB       -28.1480   46.6620   -0.5200 C.3    91  CYS91       0.0997
     79  SG       -28.9200   45.0570   -0.1500 S.3    91  CYS91      -0.0797
     80  N        -27.7450   49.9230    0.9040 N.am   92  ALA92      -0.1963
     81  CA       -27.3870   51.3360    0.7430 C.3    92  ALA92       0.1728
     82  C        -26.0520   51.5620    0.0380 C.2    92  ALA92       0.2617
     83  O        -25.8420   52.6250   -0.5460 O.2    92  ALA92      -0.2715
     84  CB       -27.4130   52.0630    2.1080 C.3    92  ALA92       0.0334
     85  N        -25.1810   50.5540    0.0660 N.am   93  GLY93      -0.1940
     86  CA       -23.8720   50.6430   -0.5420 C.3    93  GLY93       0.2014
     87  C        -23.8210   50.3990   -2.0400 C.2    93  GLY93       0.2639
     88  O        -22.8070   50.6950   -2.6660 O.2    93  GLY93      -0.2714
     89  N        -24.8950   49.8580   -2.6240 N.am   94  GLY94      -0.1939
     90  CA       -24.8910   49.5530   -4.0630 C.3    94  GLY94       0.2014
     91  C        -24.0700   48.3240   -4.4210 C.2    94  GLY94       0.2638
     92  O        -23.5920   47.6210   -3.5330 O.2    94  GLY94      -0.2714
     93  N        -23.9110   48.0570   -5.7180 N.am   95  ALA95      -0.1977
     94  CA       -23.2550   46.8230   -6.1670 C.3    95  ALA95       0.1597
     95  C        -21.7300   46.9550   -6.1150 C.2    95  ALA95       0.2287
     96  O        -21.1860   48.0550   -6.2110 O.2    95  ALA95      -0.2864
     97  CB       -23.7200   46.4220   -7.5720 C.3    95  ALA95       0.0319
     98  N        -20.0540   48.6960   -9.0550 N.3    98  ALA98      -0.1245
     99  CA       -20.2940   50.1420   -9.0170 C.3    98  ALA98       0.1562
    100  C        -19.3170   50.8700   -8.0870 C.2    98  ALA98       0.2260
    101  O        -18.7880   51.9270   -8.4450 O.2    98  ALA98      -0.2867
    102  CB       -21.7510   50.4140   -8.6090 C.3    98  ALA98       0.0290
    103  N        -21.9820   42.7940  -10.2060 N.3   139  GLY139     -0.1210
    104  CA       -23.1490   43.6500  -10.3320 C.3   139  GLY139      0.1956
    105  C        -24.3570   43.1890   -9.5290 C.2   139  GLY139      0.2611
    106  O        -25.2540   43.9790   -9.2430 O.2   139  GLY139     -0.2717
    107  N        -24.3850   41.9090   -9.1490 N.am  140  ASN140     -0.1974
    108  CA       -25.5130   41.3440   -8.3760 C.3   140  ASN140      0.1688
    109  C        -25.2070   41.0290   -6.9040 C.2   140  ASN140      0.2292
    110  O        -26.0000   40.3630   -6.2210 O.2   140  ASN140     -0.2864
    111  CB       -26.0480   40.0840   -9.0940 C.3   140  ASN140      0.1181
    112  CG       -26.7350   40.3950  -10.4120 C.2   140  ASN140      0.2629
    113  OD1      -27.2560   41.4900  -10.6180 O.2   140  ASN140     -0.2716
    114  ND2      -26.7450   39.4220  -11.3120 N.am  140  ASN140     -0.0877
    115  N        -24.5720   43.1660   -3.5460 N.3   142  LEU142     -0.1245
    116  CA       -24.8080   44.5100   -3.0350 C.3   142  LEU142      0.1561
    117  C        -24.2670   44.6730   -1.6210 C.2   142  LEU142      0.2260
    118  O        -24.3580   43.7520   -0.8080 O.2   142  LEU142     -0.2867
    119  CB       -26.3030   44.8290   -3.0170 C.3   142  LEU142      0.0270
    120  CG       -27.0930   44.4880   -4.2740 C.3   142  LEU142      0.0019
    121  CD1      -28.5950   44.8300   -4.0840 C.3   142  LEU142      0.0001
    122  CD2      -26.5100   45.1830   -5.4790 C.3   142  LEU142      0.0001
    123  N        -28.4130   39.4990   -4.9830 N.3   152  ALA152     -0.1231
    124  CA       -29.6360   39.9260   -5.6340 C.3   152  ALA152      0.1694
    125  C        -29.7350   39.3780   -7.0590 C.2   152  ALA152      0.2592
    126  O        -28.9120   38.5640   -7.4930 O.2   152  ALA152     -0.2718
    127  CB       -29.7460   41.4320   -5.6240 C.3   152  ALA152      0.0304
    128  N        -30.8010   39.8010   -7.7410 N.am  153  ASP153     -0.1974
    129  CA       -31.1310   39.4530   -9.1250 C.3   153  ASP153      0.1709
    130  C        -31.3460   37.9640   -9.4240 C.2   153  ASP153      0.2293
    131  O        -30.4970   37.2890  -10.0110 O.2   153  ASP153     -0.2864
    132  CB       -30.1060   40.0360  -10.0860 C.3   153  ASP153      0.1436
    133  CG       -30.6090   40.0600  -11.5270 C.2   153  ASP153      0.3671
    134  OD1      -31.7920   39.7790  -11.7620 O.co2 153  ASP153     -0.2456
    135  OD2      -29.8160   40.3400  -12.4410 O.co2 153  ASP153     -0.2456
@<TRIPOS>BOND
     1     8     7   ar
     2     9     7   ar
     3     7     6    1
     4   135   133   ar
     5    18    19    1
     6     6     5    1
     7   134   133   ar
     8    38    37    1
     9   133   132    1
    10    24    22    1
    11   114   112   am
    12     5     2    1
    13    19    22    1
    14    19    20    1
    15    37    36    1
    16   113   112    2
    17    32    31    1
    18    32    33    2
    19    22    23    1
    20   112   111    1
    21   104   103    1
    22   104   105    1
    23    21    20    2
    24    34    31    1
    25    34    35    1
    26   132   129    1
    27    31    30    1
    28   131   130    2
    29    35    36    1
    30    13    12    2
    31    12    11    1
    32     2     3    1
    33     2     1    1
    34   105   106    2
    35   105   107   am
    36   130   129    1
    37   107   108    1
    38   129   128    1
    39   111   108    1
    40     3    10   am
    41     3     4    2
    42    98    99    1
    43    99   102    1
    44    99   100    1
    45    10    11    1
    46    11    14    1
    47   101   100    2
    48   108   109    1
    49   128   125   am
    50    14    15    1
    51    97    94    1
    52   126   125    2
    53   125   124    1
    54   109   110    2
    55    15    16    1
    56    15    17    1
    57    96    95    2
    58    94    95    1
    59    94    93    1
    60    53    51    1
    61    93    91   am
    62   124   127    1
    63   124   123    1
    64   122   120    1
    65    27    28    2
    66    27    26    1
    67    29    26    1
    68    51    50    1
    69    26    25    1
    70    91    90    1
    71    91    92    2
    72   120   121    1
    73   120   119    1
    74    90    89    1
    75    50    52    1
    76    50    47    1
    77   115   116    1
    78    46    47    1
    79   116   119    1
    80   116   117    1
    81    45    43    1
    82    88    87    2
    83    89    87   am
    84    47    48    1
    85    87    86    1
    86    71    69   ar
    87    71    73   ar
    88   117   118    2
    89    49    48    2
    90    44    43    1
    91    43    40    1
    92    69    68   ar
    93    48    54   am
    94    77    76    2
    95    73    72   ar
    96    42    41    2
    97    57    56    2
    98    83    82    2
    99    86    85    1
   100    78    79    1
   101    78    75    1
   102    39    40    1
   103    54    55    1
   104    40    41    1
   105    74    75    1
   106    74    65   am
   107    76    75    1
   108    76    80   am
   109    68    67    1
   110    68    70   ar
   111    82    85   am
   112    82    81    1
   113    64    67    1
   114    64    63    1
   115    64    65    1
   116    56    63   am
   117    56    55    1
   118    72    70   ar
   119    65    66    2
   120    55    58    1
   121    81    80    1
   122    81    84    1
   123    59    58    1
   124    59    60    1
   125    61    60   ar
   126    60    62   ar
