@<TRIPOS>MOLECULE
tmp/2j5bA00.pdb
 119 113 0 0 0
SMALL
GASTEIGER

@<TRIPOS>ATOM
      1  N         43.7990   64.6830   50.0700 N.3    38  TYR38      -0.1241
      2  CA        44.5870   64.5550   48.8690 C.3    38  TYR38       0.1605
      3  C         45.3100   65.8420   48.5420 C.2    38  TYR38       0.2264
      4  O         44.8980   66.9320   48.9380 O.2    38  TYR38      -0.2867
      5  CB        43.7140   64.1310   47.6780 C.3    38  TYR38       0.0534
      6  CG        43.3060   65.2650   46.7670 C.ar   38  TYR38      -0.0201
      7  CD1       42.2770   66.1330   47.1190 C.ar   38  TYR38      -0.0009
      8  CD2       43.9730   65.4890   45.5630 C.ar   38  TYR38      -0.0009
      9  CE1       41.9190   67.2000   46.2980 C.ar   38  TYR38       0.0417
     10  CE2       43.6230   66.5600   44.7300 C.ar   38  TYR38       0.0417
     11  CZ        42.5930   67.4110   45.1110 C.ar   38  TYR38       0.1957
     12  OH        42.2470   68.4850   44.3130 O.3    38  TYR38      -0.2866
     13  N         47.6100   67.3990   45.0620 N.3    40  GLY40      -0.1210
     14  CA        48.0110   67.1230   43.6970 C.3    40  GLY40       0.1956
     15  C         49.0360   68.1130   43.1850 C.2    40  GLY40       0.2612
     16  O         49.1000   69.2480   43.6480 O.2    40  GLY40      -0.2717
     17  N         49.8390   67.6810   42.2220 N.am   41  PHE41      -0.1962
     18  CA        50.8600   68.5410   41.6440 C.3    41  PHE41       0.1771
     19  C         51.2120   68.0700   40.2400 C.2    41  PHE41       0.2619
     20  O         51.0390   66.9010   39.9020 O.2    41  PHE41      -0.2715
     21  CB        52.1210   68.5100   42.5110 C.3    41  PHE41       0.0574
     22  CG        52.8160   67.1770   42.5180 C.ar   41  PHE41      -0.0200
     23  CD1       53.8040   66.8840   41.5790 C.ar   41  PHE41      -0.0042
     24  CD2       52.4640   66.2010   43.4440 C.ar   41  PHE41      -0.0042
     25  CE1       54.4300   65.6360   41.5620 C.ar   41  PHE41      -0.0003
     26  CE2       53.0850   64.9480   43.4360 C.ar   41  PHE41      -0.0003
     27  CZ        54.0690   64.6650   42.4930 C.ar   41  PHE41      -0.0000
     28  N         51.7130   68.9920   39.4310 N.am   42  GLU42      -0.1977
     29  CA        52.1380   68.6700   38.0840 C.3    42  GLU42       0.1602
     30  C         53.6510   68.5140   38.1430 C.2    42  GLU42       0.2287
     31  O         54.3540   69.4070   38.6200 O.2    42  GLU42      -0.2864
     32  CB        51.7850   69.8010   37.1180 C.3    42  GLU42       0.0415
     33  CG        50.3050   70.0970   37.0130 C.3    42  GLU42       0.1163
     34  CD        49.9990   71.0840   35.9100 C.2    42  GLU42       0.3649
     35  OE1       48.8140   71.4420   35.7380 O.co2  42  GLU42      -0.2457
     36  OE2       50.9450   71.4990   35.2100 O.co2  42  GLU42      -0.2457
     37  N         48.1090   62.9330   44.1770 N.3    72  TYR72      -0.1241
     38  CA        47.7210   62.8880   42.7810 C.3    72  TYR72       0.1605
     39  C         48.7750   63.4870   41.8490 C.2    72  TYR72       0.2264
     40  O         49.0000   64.6980   41.8410 O.2    72  TYR72      -0.2867
     41  CB        46.3870   63.6230   42.6310 C.3    72  TYR72       0.0534
     42  CG        45.7050   63.4520   41.2960 C.ar   72  TYR72      -0.0201
     43  CD1       45.5540   62.1870   40.7280 C.ar   72  TYR72      -0.0009
     44  CD2       45.1740   64.5500   40.6160 C.ar   72  TYR72      -0.0009
     45  CE1       44.8900   62.0190   39.5170 C.ar   72  TYR72       0.0417
     46  CE2       44.5100   64.3920   39.4000 C.ar   72  TYR72       0.0417
     47  CZ        44.3740   63.1210   38.8600 C.ar   72  TYR72       0.1957
     48  OH        43.7300   62.9460   37.6610 O.3    72  TYR72      -0.2866
     49  N         49.5500   64.7380   38.6170 N.3    74  ALA74      -0.1245
     50  CA        48.8670   65.2480   37.4370 C.3    74  ALA74       0.1562
     51  C         49.6840   65.2600   36.1450 C.2    74  ALA74       0.2260
     52  O         49.7560   66.2880   35.4640 O.2    74  ALA74      -0.2867
     53  CB        48.3380   66.6490   37.7310 C.3    74  ALA74       0.0290
     54  N         47.7180   66.4940   33.1130 N.3    77  PHE77      -0.1241
     55  CA        47.5290   67.9420   33.1130 C.3    77  PHE77       0.1605
     56  C         48.8320   68.6570   32.7820 C.2    77  PHE77       0.2264
     57  O         48.8270   69.6750   32.0910 O.2    77  PHE77      -0.2867
     58  CB        46.9970   68.4150   34.4680 C.3    77  PHE77       0.0534
     59  CG        45.6340   67.8800   34.7970 C.ar   77  PHE77      -0.0203
     60  CD1       45.4770   66.5850   35.2750 C.ar   77  PHE77      -0.0042
     61  CD2       44.4980   68.6590   34.5820 C.ar   77  PHE77      -0.0042
     62  CE1       44.2120   66.0700   35.5330 C.ar   77  PHE77      -0.0003
     63  CE2       43.2240   68.1510   34.8380 C.ar   77  PHE77      -0.0003
     64  CZ        43.0820   66.8550   35.3130 C.ar   77  PHE77      -0.0000
     65  N         54.1580   71.2540   29.9160 N.3    83  LYS83      -0.1245
     66  CA        55.4020   71.1460   30.6690 C.3    83  LYS83       0.1561
     67  C         56.3310   70.2000   29.9180 C.2    83  LYS83       0.2260
     68  O         55.9210   69.1150   29.5040 O.2    83  LYS83      -0.2867
     69  CB        55.1450   70.6150   32.0810 C.3    83  LYS83       0.0271
     70  CG        54.6740   71.6790   33.0500 C.3    83  LYS83       0.0035
     71  CD        54.6430   71.1620   34.4750 C.3    83  LYS83       0.0206
     72  CE        54.4030   72.2970   35.4560 C.3    83  LYS83       0.1093
     73  NZ        53.1850   73.0730   35.0920 N.3    83  LYS83      -0.1314
     74  N         39.9190   74.8920   32.9570 N.3   148  TYR148     -0.1241
     75  CA        40.9300   74.3790   33.8750 C.3   148  TYR148      0.1605
     76  C         40.4390   74.2210   35.3190 C.2   148  TYR148      0.2264
     77  O         40.7750   73.2400   35.9850 O.2   148  TYR148     -0.2867
     78  CB        42.1720   75.2780   33.8440 C.3   148  TYR148      0.0534
     79  CG        43.3840   74.6690   34.5180 C.ar  148  TYR148     -0.0201
     80  CD1       43.9180   73.4570   34.0720 C.ar  148  TYR148     -0.0009
     81  CD2       43.9930   75.2970   35.6070 C.ar  148  TYR148     -0.0009
     82  CE1       45.0260   72.8830   34.6940 C.ar  148  TYR148      0.0417
     83  CE2       45.1060   74.7290   36.2370 C.ar  148  TYR148      0.0417
     84  CZ        45.6140   73.5220   35.7750 C.ar  148  TYR148      0.1957
     85  OH        46.7040   72.9520   36.3990 O.3   148  TYR148     -0.2866
     86  N         40.0880   70.4800   37.5170 N.3   152  GLN152     -0.1245
     87  CA        40.7510   70.1530   38.7750 C.3   152  GLN152      0.1566
     88  C         39.7370   69.9320   39.8940 C.2   152  GLN152      0.2260
     89  O         39.9630   69.1170   40.7940 O.2   152  GLN152     -0.2867
     90  CB        41.7240   71.2750   39.1650 C.3   152  GLN152      0.0367
     91  CG        42.5190   70.9970   40.4360 C.3   152  GLN152      0.0905
     92  CD        43.5130   72.1000   40.7700 C.2   152  GLN152      0.2608
     93  OE1       44.3700   72.4500   39.9600 O.2   152  GLN152     -0.2717
     94  NE2       43.4010   72.6500   41.9740 N.am  152  GLN152     -0.0878
     95  N         38.5010   66.4120   40.8350 N.3   155  ASP155     -0.1239
     96  CA        39.4080   65.5720   41.6120 C.3   155  ASP155      0.1674
     97  C         38.9030   65.1720   42.9820 C.2   155  ASP155      0.2266
     98  O         38.9180   63.9920   43.3260 O.2   155  ASP155     -0.2867
     99  CB        40.7680   66.2610   41.7740 C.3   155  ASP155      0.1410
    100  CG        41.4390   66.5380   40.4470 C.2   155  ASP155      0.3668
    101  OD1       40.8530   66.1960   39.3950 O.co2 155  ASP155     -0.2456
    102  OD2       42.5510   67.1030   40.4500 O.co2 155  ASP155     -0.2456
    103  N         45.7050   71.6990   49.6020 N.3   169  LEU169     -0.1245
    104  CA        46.5250   72.3710   48.5940 C.3   169  LEU169      0.1561
    105  C         47.0540   73.7160   49.0850 C.2   169  LEU169      0.2260
    106  O         46.6980   74.1810   50.1670 O.2   169  LEU169     -0.2867
    107  CB        45.7020   72.6180   47.3270 C.3   169  LEU169      0.0270
    108  CG        44.9520   71.4370   46.7040 C.3   169  LEU169      0.0019
    109  CD1       44.1310   71.9370   45.5100 C.3   169  LEU169      0.0001
    110  CD2       45.9450   70.3590   46.2690 C.3   169  LEU169      0.0001
    111  N         45.4990   78.1090   45.3780 N.3   173  GLN173     -0.1245
    112  CA        44.5040   77.3660   44.6150 C.3   173  GLN173      0.1566
    113  C         43.1440   77.3030   45.3020 C.2   173  GLN173      0.2260
    114  O         42.3980   76.3340   45.1420 O.2   173  GLN173     -0.2867
    115  CB        45.0140   75.9560   44.3450 C.3   173  GLN173      0.0367
    116  CG        46.1980   75.9380   43.4070 C.3   173  GLN173      0.0905
    117  CD        46.4130   74.5830   42.8050 C.2   173  GLN173      0.2608
    118  OE1       47.0980   73.7340   43.3780 O.2   173  GLN173     -0.2717
    119  NE2       45.8080   74.3550   41.6430 N.am  173  GLN173     -0.0878
@<TRIPOS>BOND
     1    68    67    2
     2    65    66    1
     3    67    66    1
     4    66    69    1
     5    69    70    1
     6    57    56    2
     7    56    55    1
     8    74    75    1
     9    70    71    1
    10    55    54    1
    11    55    58    1
    12    78    75    1
    13    78    79    1
    14    75    76    1
    15    80    79   ar
    16    80    82   ar
    17    58    59    1
    18    71    72    1
    19    79    81   ar
    20    61    59   ar
    21    61    63   ar
    22    82    84   ar
    23    59    60   ar
    24    63    64   ar
    25    73    72    1
    26    36    34   ar
    27    60    62   ar
    28    64    62   ar
    29    76    77    2
    30    52    51    2
    31    81    83   ar
    32    35    34   ar
    33    84    83   ar
    34    84    85    1
    35    34    33    1
    36    51    50    1
    37    33    32    1
    38    32    29    1
    39    50    53    1
    40    50    49    1
    41    86    87    1
    42    48    47    1
    43    29    30    1
    44    29    28    1
    45    30    31    2
    46    87    90    1
    47    87    88    1
    48    47    46   ar
    49    47    45   ar
    50    90    91    1
    51   101   100   ar
    52    46    44   ar
    53    28    19   am
    54    45    43   ar
    55    88    89    2
    56    20    19    2
    57    93    92    2
    58    19    18    1
    59    91    92    1
    60   100   102   ar
    61   100    99    1
    62    44    42   ar
    63    43    42   ar
    64    92    94   am
    65    95    96    1
    66    42    41    1
    67    25    23   ar
    68    25    27   ar
    69    23    22   ar
    70    96    99    1
    71    96    97    1
    72   119   117   am
    73    18    17    1
    74    18    21    1
    75    40    39    2
    76    39    38    1
    77    17    15   am
    78    27    26   ar
    79    21    22    1
    80    22    24   ar
    81    41    38    1
    82    38    37    1
    83   117   118    2
    84   117   116    1
    85    97    98    2
    86    15    16    2
    87    15    14    1
    88   116   115    1
    89    26    24   ar
    90    14    13    1
    91    12    11    1
    92   115   112    1
    93   112   113    1
    94   112   111    1
    95    10    11   ar
    96    10     8   ar
    97    11     9   ar
    98   114   113    2
    99   109   108    1
   100     8     6   ar
   101   110   108    1
   102     9     7   ar
   103   108   107    1
   104     6     7   ar
   105     6     5    1
   106   107   104    1
   107     5     2    1
   108     3     2    1
   109     3     4    2
   110   104   105    1
   111   104   103    1
   112     2     1    1
   113   105   106    2
