@<TRIPOS>MOLECULE
tmp/2j5fA00.pdb
 159 145 0 0 0
SMALL
GASTEIGER

@<TRIPOS>ATOM
      1  N        -45.6940    3.1100  -19.0960 N.3    23  LEU23      -0.1231
      2  CA       -46.7100    2.3050  -18.4600 C.3    23  LEU23       0.1693
      3  C        -46.3260    0.8510  -18.5850 C.2    23  LEU23       0.2592
      4  O        -46.7540    0.0170  -17.7910 O.2    23  LEU23      -0.2718
      5  CB       -48.0440    2.5180  -19.1680 C.3    23  LEU23       0.0284
      6  CG       -49.3590    2.6980  -18.3820 C.3    23  LEU23       0.0019
      7  CD1      -50.4650    2.7450  -19.4070 C.3    23  LEU23       0.0001
      8  CD2      -49.6460    1.5830  -17.3560 C.3    23  LEU23       0.0001
      9  N        -45.5190    0.5530  -19.5950 N.am   24  GLY24      -0.1957
     10  CA       -45.1880   -0.8150  -19.9400 C.3    24  GLY24       0.1869
     11  C        -44.2220   -0.8110  -21.0970 C.2    24  GLY24       0.2309
     12  O        -44.1020    0.1840  -21.8170 O.2    24  GLY24      -0.2863
     13  N        -41.2060   -6.0440  -27.3690 N.3    28  PHE28      -0.1241
     14  CA       -42.3700   -6.2560  -28.2530 C.3    28  PHE28       0.1605
     15  C        -43.0040   -4.8950  -28.6430 C.2    28  PHE28       0.2264
     16  O        -43.6020   -4.7620  -29.7270 O.2    28  PHE28      -0.2867
     17  CB       -43.4070   -7.2220  -27.6150 C.3    28  PHE28       0.0534
     18  CG       -44.0760   -6.6910  -26.3370 C.ar   28  PHE28      -0.0203
     19  CD1      -43.5620   -7.0180  -25.0730 C.ar   28  PHE28      -0.0042
     20  CD2      -45.2390   -5.8850  -26.4060 C.ar   28  PHE28      -0.0042
     21  CE1      -44.1700   -6.5390  -23.8960 C.ar   28  PHE28      -0.0003
     22  CE2      -45.8600   -5.3950  -25.2400 C.ar   28  PHE28      -0.0003
     23  CZ       -45.3230   -5.7260  -23.9790 C.ar   28  PHE28      -0.0000
     24  N        -45.7040    1.0530  -24.1680 N.3    31  VAL31      -0.1245
     25  CA       -46.9950    1.6950  -24.0000 C.3    31  VAL31       0.1561
     26  C        -46.8630    2.8040  -22.9740 C.2    31  VAL31       0.2260
     27  O        -46.2740    2.6040  -21.9210 O.2    31  VAL31      -0.2867
     28  CB       -48.0650    0.6950  -23.5590 C.3    31  VAL31       0.0252
     29  CG1      -49.4050    1.1890  -23.9900 C.3    31  VAL31       0.0019
     30  CG2      -47.8330   -0.6800  -24.1590 C.3    31  VAL31       0.0019
     31  N        -53.7760    6.0720  -23.6430 N.3    48  ALA48      -0.1245
     32  CA       -52.5350    5.3140  -23.7510 C.3    48  ALA48       0.1562
     33  C        -51.9400    5.4890  -25.1510 C.2    48  ALA48       0.2260
     34  O        -52.6700    5.5870  -26.1530 O.2    48  ALA48      -0.2867
     35  CB       -52.7580    3.9040  -23.4660 C.3    48  ALA48       0.0290
     36  N        -49.1140    3.8930  -27.7740 N.3    50  LYS50      -0.1245
     37  CA       -48.3240    2.6940  -28.0620 C.3    50  LYS50       0.1561
     38  C        -47.3860    2.9700  -29.1970 C.2    50  LYS50       0.2260
     39  O        -47.8100    3.3780  -30.2760 O.2    50  LYS50      -0.2867
     40  CB       -49.2120    1.5000  -28.4230 C.3    50  LYS50       0.0271
     41  CG       -48.4590    0.2610  -28.8750 C.3    50  LYS50       0.0035
     42  CD       -49.4000   -0.7310  -29.5220 C.3    50  LYS50       0.0206
     43  CE       -48.9250   -2.1320  -29.2580 C.3    50  LYS50       0.1093
     44  NZ       -49.7860   -3.1700  -29.8760 N.3    50  LYS50      -0.1314
     45  N        -52.6190   -2.8310  -37.2860 N.3    67  GLU67      -0.1245
     46  CA       -53.2630   -2.7520  -36.0000 C.3    67  GLU67       0.1567
     47  C        -54.2360   -1.5810  -35.9270 C.2    67  GLU67       0.2260
     48  O        -55.4200   -1.7900  -35.6350 O.2    67  GLU67      -0.2867
     49  CB       -52.2330   -2.6460  -34.9060 C.3    67  GLU67       0.0388
     50  CG       -52.8460   -2.8350  -33.5670 C.3    67  GLU67       0.1160
     51  CD       -51.8380   -3.0630  -32.4900 C.2    67  GLU67       0.3649
     52  OE1      -52.1960   -2.9040  -31.3030 O.co2  67  GLU67      -0.2457
     53  OE2      -50.6840   -3.3990  -32.8250 O.co2  67  GLU67      -0.2457
     54  N        -58.0770   -1.4220  -35.2660 N.3    71  MET71      -0.1245
     55  CA       -58.5150   -0.7140  -34.0830 C.3    71  MET71       0.1570
     56  C        -59.3670    0.5190  -34.3910 C.2    71  MET71       0.2261
     57  O        -60.1260    0.9800  -33.5480 O.2    71  MET71      -0.2867
     58  CB       -57.3070   -0.3530  -33.2430 C.3    71  MET71       0.0387
     59  CG       -57.5930   -0.1350  -31.7830 C.3    71  MET71       0.0595
     60  SD       -56.0610   -0.0840  -30.8280 S.3    71  MET71      -0.1393
     61  CE       -55.1280   -1.2470  -31.7970 C.3    71  MET71       0.0692
     62  N        -61.6510   -2.0700  -27.6020 N.3    80  CYS80      -0.1235
     63  CA       -61.0060   -0.7500  -27.5410 C.3    80  CYS80       0.1677
     64  C        -60.9090   -0.1660  -28.9120 C.2    80  CYS80       0.2270
     65  O        -60.4010   -0.8220  -29.8060 O.2    80  CYS80      -0.2867
     66  CB       -59.5930   -0.8430  -27.0060 C.3    80  CYS80       0.0956
     67  SG       -59.5050   -1.5940  -25.4180 S.3    80  CYS80      -0.0801
     68  N        -49.8110    4.8320  -31.7820 N.3    93  LEU93      -0.1245
     69  CA       -51.2130    4.4940  -31.7260 C.3    93  LEU93       0.1561
     70  C        -51.7520    5.0730  -30.4510 C.2    93  LEU93       0.2260
     71  O        -51.1300    4.9360  -29.4120 O.2    93  LEU93      -0.2867
     72  CB       -51.3860    2.9830  -31.7280 C.3    93  LEU93       0.0270
     73  CG       -51.8110    2.3490  -33.0480 C.3    93  LEU93       0.0019
     74  CD1      -51.0600    2.9680  -34.1990 C.3    93  LEU93       0.0001
     75  CD2      -51.5880    0.8390  -33.0340 C.3    93  LEU93       0.0001
     76  N        -55.0580    5.4690  -27.8750 N.3    95  THR95      -0.1203
     77  CA       -56.3450    4.9860  -27.5000 C.3    95  THR95       0.1994
     78  C        -56.7070    5.3860  -26.0750 C.2    95  THR95       0.2618
     79  O        -55.8470    5.8150  -25.3050 O.2    95  THR95      -0.2717
     80  CB       -56.3690    3.4610  -27.6410 C.3    95  THR95       0.1784
     81  OG1      -57.7400    3.0140  -27.7310 O.3    95  THR95      -0.2211
     82  CG2      -55.6150    2.7960  -26.4670 C.3    95  THR95       0.0376
     83  N        -57.9860    5.2330  -25.7290 N.am   96  GLN96      -0.1965
     84  CA       -58.4450    5.4160  -24.3610 C.3    96  GLN96       0.1733
     85  C        -57.5880    4.6550  -23.3490 C.2    96  GLN96       0.2616
     86  O        -57.2760    3.4710  -23.5280 O.2    96  GLN96      -0.2715
     87  CB       -59.8880    4.9620  -24.2500 C.3    96  GLN96       0.0408
     88  CG       -60.4470    4.9720  -22.8400 C.3    96  GLN96       0.0908
     89  CD       -61.7970    4.2690  -22.7620 C.2    96  GLN96       0.2608
     90  OE1      -61.9650    3.1560  -23.2800 O.2    96  GLN96      -0.2717
     91  NE2      -62.7750    4.9180  -22.1130 N.am   96  GLN96      -0.0878
     92  N        -57.2230    5.3550  -22.2820 N.am   97  LEU97      -0.1963
     93  CA       -56.5340    4.7530  -21.1400 C.3    97  LEU97       0.1728
     94  C        -57.4540    3.8250  -20.3660 C.2    97  LEU97       0.2616
     95  O        -58.5710    4.2020  -20.0330 O.2    97  LEU97      -0.2715
     96  CB       -56.0220    5.8500  -20.2000 C.3    97  LEU97       0.0311
     97  CG       -55.2690    5.4060  -18.9430 C.3    97  LEU97       0.0022
     98  CD1      -53.8940    4.8700  -19.2910 C.3    97  LEU97       0.0001
     99  CD2      -55.1680    6.5290  -17.9480 C.3    97  LEU97       0.0001
    100  N        -56.9800    2.6180  -20.0920 N.am   98  MET98      -0.1977
    101  CA       -57.6860    1.6530  -19.2380 C.3    98  MET98       0.1605
    102  C        -57.0410    1.6540  -17.8560 C.2    98  MET98       0.2287
    103  O        -56.1060    0.8940  -17.5900 O.2    98  MET98      -0.2864
    104  CB       -57.6390    0.2420  -19.8570 C.3    98  MET98       0.0413
    105  CG       -58.3000    0.1500  -21.2050 C.3    98  MET98       0.0598
    106  SD       -59.9510    0.8680  -21.1310 S.3    98  MET98      -0.1393
    107  CE       -60.8930   -0.6310  -21.0480 C.3    98  MET98       0.0692
    108  N        -55.2670   -1.3930  -16.1510 N.3   101  GLY101     -0.1210
    109  CA       -54.3910   -2.3230  -16.8600 C.3   101  GLY101      0.1956
    110  C        -55.0220   -3.6190  -17.3100 C.2   101  GLY101      0.2612
    111  O        -56.2290   -3.7500  -17.2810 O.2   101  GLY101     -0.2717
    112  N        -54.1760   -4.5600  -17.6820 N.am  102  CYS102     -0.1970
    113  CA       -54.5860   -5.8590  -18.1550 C.3   102  CYS102      0.1712
    114  C        -55.3670   -6.6310  -17.1380 C.2   102  CYS102      0.2296
    115  O        -54.9220   -6.7090  -15.9870 O.2   102  CYS102     -0.2864
    116  CB       -53.3030   -6.6860  -18.2620 C.3   102  CYS102      0.0983
    117  SG       -52.2490   -6.3380  -19.7030 S.3   102  CYS102     -0.0798
    118  N        -53.0700   -9.0300  -15.1800 N.3   105  ASP105     -0.1239
    119  CA       -52.3770   -8.4140  -14.0550 C.3   105  ASP105      0.1674
    120  C        -53.3280   -8.0590  -12.9280 C.2   105  ASP105      0.2266
    121  O        -52.9120   -7.9930  -11.7860 O.2   105  ASP105     -0.2867
    122  CB       -51.5700   -7.1820  -14.4870 C.3   105  ASP105      0.1410
    123  CG       -50.3430   -7.5470  -15.3560 C.2   105  ASP105      0.3668
    124  OD1      -49.8730   -8.7070  -15.2910 O.co2 105  ASP105     -0.2456
    125  OD2      -49.8340   -6.6780  -16.1020 O.co2 105  ASP105     -0.2456
    126  N        -54.2440  -11.3010  -20.8700 N.3   146  ARG146     -0.1245
    127  CA       -53.2460  -10.2400  -21.0310 C.3   146  ARG146      0.1563
    128  C        -53.7480   -9.2110  -22.0310 C.2   146  ARG146      0.2260
    129  O        -53.2700   -8.0740  -22.0100 O.2   146  ARG146     -0.2867
    130  CB       -51.9060  -10.7970  -21.5040 C.3   146  ARG146      0.0307
    131  CG       -51.8010  -11.0140  -22.9830 C.3   146  ARG146      0.0489
    132  CD       -50.5260  -11.7430  -23.3640 C.3   146  ARG146      0.2205
    133  NE       -50.8440  -13.1500  -23.6160 N.pl3 146  ARG146     -0.0865
    134  CZ       -51.0680  -13.6870  -24.8170 C.cat 146  ARG146      0.5346
    135  NH1      -50.9920  -12.9290  -25.9140 N.pl3 146  ARG146      0.1354
    136  NH2      -51.3710  -14.9830  -24.9250 N.pl3 146  ARG146      0.1354
    137  N        -58.5020   -5.3880  -21.2780 N.3   149  LEU149     -0.1245
    138  CA       -58.1590   -4.3420  -20.3320 C.3   149  LEU149      0.1561
    139  C        -59.3310   -3.9410  -19.4480 C.2   149  LEU149      0.2260
    140  O        -60.4640   -4.2160  -19.7870 O.2   149  LEU149     -0.2867
    141  CB       -57.5300   -3.1270  -21.0250 C.3   149  LEU149      0.0270
    142  CG       -56.4960   -3.4430  -22.1000 C.3   149  LEU149      0.0019
    143  CD1      -56.3270   -2.2430  -22.9940 C.3   149  LEU149      0.0001
    144  CD2      -55.1540   -3.9410  -21.5360 C.3   149  LEU149      0.0001
    145  N        -58.6520   -5.9540  -26.4360 N.3   159  THR159     -0.1203
    146  CA       -57.6980   -5.1570  -27.1700 C.3   159  THR159      0.1994
    147  C        -56.6780   -5.9800  -27.9350 C.2   159  THR159      0.2617
    148  O        -56.8000   -7.1920  -28.0450 O.2   159  THR159     -0.2717
    149  CB       -56.9820   -4.2120  -26.2330 C.3   159  THR159      0.1784
    150  OG1      -56.4360   -3.1440  -26.9990 O.3   159  THR159     -0.2211
    151  CG2      -55.8560   -4.9160  -25.4670 C.3   159  THR159      0.0376
    152  N        -55.6700   -5.2980  -28.4620 N.am  160  ASP160     -0.1973
    153  CA       -54.5250   -5.9140  -29.1580 C.3   160  ASP160      0.1709
    154  C        -54.8580   -6.6620  -30.4460 C.2   160  ASP160      0.2293
    155  O        -54.9320   -7.8860  -30.4900 O.2   160  ASP160     -0.2864
    156  CB       -53.6960   -6.7680  -28.2120 C.3   160  ASP160      0.1436
    157  CG       -52.2360   -6.4270  -28.2890 C.2   160  ASP160      0.3671
    158  OD1      -51.5950   -7.0750  -29.1530 O.co2 160  ASP160     -0.2456
    159  OD2      -51.7480   -5.5060  -27.5340 O.co2 160  ASP160     -0.2456
@<TRIPOS>BOND
     1    45    46    1
     2    46    47    1
     3    46    49    1
     4    47    48    2
     5    54    55    1
     6    49    50    1
     7    56    55    1
     8    56    57    2
     9    74    73    1
    10    55    58    1
    11    50    51    1
    12    58    59    1
    13    73    75    1
    14    73    72    1
    15    53    51   ar
    16    51    52   ar
    17    61    60    1
    18    59    60    1
    19    68    69    1
    20    72    69    1
    21    69    70    1
    22   155   154    2
    23    70    71    2
    24   154   153    1
    25    39    38    2
    26    44    43    1
    27    65    64    2
    28    16    15    2
    29    42    43    1
    30    42    41    1
    31    38    37    1
    32   153   152    1
    33   153   156    1
    34   158   157   ar
    35    64    63    1
    36    41    40    1
    37    15    14    1
    38   152   147   am
    39    40    37    1
    40   157   156    1
    41   157   159   ar
    42    14    17    1
    43    14    13    1
    44    37    36    1
    45   148   147    2
    46   147   146    1
    47    76    77    1
    48    81    80    1
    49    80    77    1
    50    80    82    1
    51    17    18    1
    52    62    63    1
    53    63    66    1
    54    77    78    1
    55   146   145    1
    56   146   149    1
    57    66    67    1
    58   150   149    1
    59    20    18   ar
    60    20    22   ar
    61    18    19   ar
    62   149   151    1
    63    34    33    2
    64    78    83   am
    65    78    79    2
    66   135   134    1
    67    83    84    1
    68    22    23   ar
    69    33    32    1
    70    19    21   ar
    71   136   134    1
    72   134   133    2
    73    84    87    1
    74    84    85    1
    75    87    88    1
    76    24    25    1
    77    30    28    1
    78    25    28    1
    79    25    26    1
    80    29    28    1
    81    23    21   ar
    82    32    31    1
    83    32    35    1
    84   133   132    1
    85    86    85    2
    86   132   131    1
    87    85    92   am
    88    90    89    2
    89   143   142    1
    90   131   130    1
    91    26    27    2
    92    88    89    1
    93    89    91   am
    94    92    93    1
    95   142   144    1
    96   142   141    1
    97   128   129    2
    98   128   127    1
    99    12    11    2
   100   130   127    1
   101   137   138    1
   102   105   106    1
   103   105   104    1
   104    93    94    1
   105    93    96    1
   106   106   107    1
   107    11    10    1
   108   127   126    1
   109   141   138    1
   110    94   100   am
   111    94    95    2
   112   138   139    1
   113    96    97    1
   114   100   101    1
   115    10     9    1
   116   104   101    1
   117   140   139    2
   118   117   116    1
   119     9     3   am
   120     7     6    1
   121    98    97    1
   122   101   102    1
   123     5     2    1
   124     5     6    1
   125     1     2    1
   126    97    99    1
   127     3     2    1
   128     3     4    2
   129     6     8    1
   130   116   113    1
   131   113   112    1
   132   113   114    1
   133   102   103    2
   134   112   110   am
   135   110   111    2
   136   110   109    1
   137   114   115    2
   138   109   108    1
   139   125   123   ar
   140   123   124   ar
   141   123   122    1
   142   118   119    1
   143   122   119    1
   144   119   120    1
   145   120   121    2
