@<TRIPOS>MOLECULE
tmp/2j5sA00.pdb
 141 134 0 0 0
SMALL
GASTEIGER

@<TRIPOS>ATOM
      1  N          2.9170  -15.8420   -1.7840 N.3    36  PHE36      -0.1241
      2  CA         2.8420  -16.2950   -0.3910 C.3    36  PHE36       0.1605
      3  C          3.7280  -15.3940    0.4890 C.2    36  PHE36       0.2264
      4  O          4.8500  -15.0430    0.0800 O.2    36  PHE36      -0.2867
      5  CB         3.3060  -17.7420   -0.2820 C.3    36  PHE36       0.0534
      6  CG         2.9090  -18.4000    1.0170 C.ar   36  PHE36      -0.0203
      7  CD1        1.6090  -18.9000    1.2030 C.ar   36  PHE36      -0.0042
      8  CD2        3.8410  -18.5030    2.0540 C.ar   36  PHE36      -0.0042
      9  CE1        1.2270  -19.4940    2.4120 C.ar   36  PHE36      -0.0003
     10  CE2        3.4890  -19.1090    3.2670 C.ar   36  PHE36      -0.0003
     11  CZ         2.1700  -19.6180    3.4410 C.ar   36  PHE36      -0.0000
     12  N          0.9820  -16.9200    5.7940 N.3    41  HIS41      -0.1241
     13  CA         1.3560  -18.0360    6.6700 C.3    41  HIS41       0.1621
     14  C          0.6540  -17.9240    8.0410 C.2    41  HIS41       0.2264
     15  O          0.2990  -18.9470    8.6560 O.2    41  HIS41      -0.2867
     16  CB         2.8720  -18.0930    6.8710 C.3    41  HIS41       0.0745
     17  CG         3.3650  -19.4320    7.3440 C.ar   41  HIS41       0.0817
     18  ND1        3.4390  -19.7740    8.6780 N.ar   41  HIS41      -0.2268
     19  CD2        3.7500  -20.5320    6.6420 C.ar   41  HIS41       0.1154
     20  CE1        3.8800  -21.0250    8.7820 C.ar   41  HIS41       0.1986
     21  NE2        4.0600  -21.5130    7.5620 N.ar   41  HIS41      -0.2212
     22  N          6.6730  -16.4440   -3.7700 N.3    73  ILE73      -0.1245
     23  CA         6.8120  -16.2560   -2.3460 C.3    73  ILE73       0.1561
     24  C          7.7050  -15.0420   -2.0960 C.2    73  ILE73       0.2260
     25  O          8.7180  -14.8410   -2.7980 O.2    73  ILE73      -0.2867
     26  CB         7.3620  -17.5410   -1.6420 C.3    73  ILE73       0.0252
     27  CG1        7.5220  -17.3080   -0.1320 C.3    73  ILE73       0.0019
     28  CG2        8.6670  -18.0590   -2.2820 C.3    73  ILE73       0.0019
     29  CD1        7.8270  -18.5970    0.5960 C.3    73  ILE73       0.0001
     30  N         10.0730  -14.1420    0.2910 N.3    75  PHE75      -0.1241
     31  CA        10.8510  -14.7920    1.3680 C.3    75  PHE75       0.1605
     32  C         11.0960  -13.8850    2.5980 C.2    75  PHE75       0.2264
     33  O         10.8640  -14.2950    3.7340 O.2    75  PHE75      -0.2867
     34  CB        12.1840  -15.3560    0.8600 C.3    75  PHE75       0.0534
     35  CG        12.0540  -16.5350   -0.0330 C.ar   75  PHE75      -0.0203
     36  CD1       11.7750  -17.7900    0.4910 C.ar   75  PHE75      -0.0042
     37  CD2       12.2440  -16.4060   -1.4090 C.ar   75  PHE75      -0.0042
     38  CE1       11.6700  -18.8960   -0.3340 C.ar   75  PHE75      -0.0003
     39  CE2       12.1350  -17.5130   -2.2490 C.ar   75  PHE75      -0.0003
     40  CZ        11.8600  -18.7590   -1.7120 C.ar   75  PHE75      -0.0000
     41  N          8.4600  -13.6040    5.4590 N.3    78  LEU78      -0.1245
     42  CA         8.2670  -14.7560    6.3630 C.3    78  LEU78       0.1561
     43  C          8.9490  -14.5490    7.7270 C.2    78  LEU78       0.2260
     44  O          8.7410  -15.3270    8.6760 O.2    78  LEU78      -0.2867
     45  CB         8.7330  -16.0700    5.6970 C.3    78  LEU78       0.0270
     46  CG         7.7860  -16.8100    4.7350 C.3    78  LEU78       0.0019
     47  CD1        6.5480  -17.3050    5.4570 C.3    78  LEU78       0.0001
     48  CD2        7.3940  -15.9840    3.5410 C.3    78  LEU78       0.0001
     49  N         13.7120  -16.4820    9.5530 N.3    81  VAL81      -0.1245
     50  CA        13.6010  -17.9220    9.8070 C.3    81  VAL81       0.1561
     51  C         14.8410  -18.5730   10.4010 C.2    81  VAL81       0.2260
     52  O         14.7420  -19.6710   10.9710 O.2    81  VAL81      -0.2867
     53  CB        13.1460  -18.6680    8.5350 C.3    81  VAL81       0.0252
     54  CG1       11.7460  -18.2280    8.1650 C.3    81  VAL81       0.0019
     55  CG2       14.1180  -18.4400    7.3820 C.3    81  VAL81       0.0019
     56  N         11.4240  -18.4500   13.9320 N.3    87  TRP87      -0.1241
     57  CA        10.9650  -19.7230   13.3130 C.3    87  TRP87       0.1605
     58  C          9.8540  -20.3620   14.1490 C.2    87  TRP87       0.2264
     59  O          8.9380  -20.9770   13.5920 O.2    87  TRP87      -0.2867
     60  CB        12.1050  -20.7330   13.1530 C.3    87  TRP87       0.0550
     61  CG        11.5680  -22.0230   12.5740 C.ar   87  TRP87       0.0003
     62  CD1       11.2810  -23.1890   13.2450 C.ar   87  TRP87       0.0946
     63  CD2       11.1900  -22.2160   11.2120 C.ar   87  TRP87       0.0152
     64  NE1       10.7680  -24.1320   12.3360 N.ar   87  TRP87      -0.2442
     65  CE2       10.7030  -23.5440   11.0910 C.ar   87  TRP87       0.0810
     66  CE3       11.2500  -21.3990   10.0710 C.ar   87  TRP87       0.0012
     67  CZ2       10.2620  -24.0620    9.8720 C.ar   87  TRP87       0.0191
     68  CZ3       10.8130  -21.9160    8.8500 C.ar   87  TRP87       0.0001
     69  CH2       10.3270  -23.2380    8.7620 C.ar   87  TRP87       0.0015
     70  N          6.5360  -19.5920   12.8230 N.3    90  THR90      -0.1218
     71  CA         6.3230  -20.3150   11.5730 C.3    90  THR90       0.1862
     72  C          5.9840  -21.7660   11.8860 C.2    90  THR90       0.2287
     73  O          5.0310  -22.3280   11.3170 O.2    90  THR90      -0.2866
     74  CB         7.5750  -20.2260   10.7130 C.3    90  THR90       0.1770
     75  OG1        7.9310  -18.8360   10.5930 O.3    90  THR90      -0.2211
     76  CG2        7.3040  -20.7860    9.3030 C.3    90  THR90       0.0375
     77  N          3.6790  -25.0750   -1.0860 N.3   119  HIS119     -0.1241
     78  CA         2.4930  -25.2780   -0.2950 C.3   119  HIS119      0.1621
     79  C          1.4380  -26.1770   -0.9460 C.2   119  HIS119      0.2264
     80  O          0.2560  -26.1550   -0.5640 O.2   119  HIS119     -0.2867
     81  CB         1.9270  -23.9430    0.2350 C.3   119  HIS119      0.0745
     82  CG         2.8310  -23.3420    1.2550 C.ar  119  HIS119      0.0817
     83  ND1        3.2460  -24.0800    2.3490 N.ar  119  HIS119     -0.2268
     84  CD2        3.4960  -22.1610    1.3160 C.ar  119  HIS119      0.1154
     85  CE1        4.0860  -23.3600    3.0680 C.ar  119  HIS119      0.1986
     86  NE2        4.2520  -22.1880    2.4650 N.ar  119  HIS119     -0.2212
     87  N         10.7120  -24.5590   -3.1210 N.3   141  PRO141     -0.2102
     88  CA        11.5660  -23.6740   -2.3060 C.3   141  PRO141      0.1504
     89  C         12.5210  -24.3000   -1.3240 C.2   141  PRO141      0.2575
     90  O         13.5420  -23.6790   -0.9930 O.2   141  PRO141     -0.2718
     91  CB        10.5670  -22.7940   -1.5780 C.3   141  PRO141      0.0282
     92  CG         9.3210  -23.6120   -1.4680 C.3   141  PRO141      0.0208
     93  CD         9.2950  -24.5030   -2.6840 C.3   141  PRO141      0.0893
     94  N         12.2250  -25.5030   -0.8580 N.am  142  HIS142     -0.1976
     95  CA        13.0150  -26.0290    0.2530 C.3   142  HIS142      0.1656
     96  C         14.4600  -26.3360   -0.0980 C.2   142  HIS142      0.2291
     97  O         15.3840  -25.7990    0.5430 O.2   142  HIS142     -0.2864
     98  CB        12.3010  -27.2310    0.8890 C.3   142  HIS142      0.0771
     99  CG        10.9760  -26.8590    1.4700 C.ar  142  HIS142      0.0820
    100  ND1        9.7750  -27.1900    0.8690 N.ar  142  HIS142     -0.2267
    101  CD2       10.6640  -26.1690    2.5900 C.ar  142  HIS142      0.1154
    102  CE1        8.7830  -26.7070    1.5970 C.ar  142  HIS142      0.1986
    103  NE2        9.2940  -26.0800    2.6430 N.ar  142  HIS142     -0.2212
    104  N         16.4580  -23.3050   -0.9420 N.3   145  ALA145     -0.1245
    105  CA        16.9230  -22.5230    0.2100 C.3   145  ALA145      0.1562
    106  C         17.9200  -23.3170    1.0530 C.2   145  ALA145      0.2260
    107  O         18.6540  -22.7340    1.8710 O.2   145  ALA145     -0.2867
    108  CB        15.7450  -22.1020    1.0630 C.3   145  ALA145      0.0290
    109  N         16.7870  -25.9400    3.1550 N.3   147  ILE147     -0.1245
    110  CA        16.1050  -26.3050    4.4050 C.3   147  ILE147      0.1561
    111  C         15.1940  -27.5110    4.1850 C.2   147  ILE147      0.2260
    112  O         14.8470  -27.8310    3.0540 O.2   147  ILE147     -0.2867
    113  CB        15.3310  -25.1340    5.0160 C.3   147  ILE147      0.0252
    114  CG1       14.1360  -24.7390    4.1420 C.3   147  ILE147      0.0019
    115  CG2       16.2710  -23.9090    5.2320 C.3   147  ILE147      0.0019
    116  CD1       13.3480  -23.5270    4.7150 C.3   147  ILE147      0.0001
    117  N          7.2090  -29.2650    6.0310 N.3   151  ASP151     -0.1239
    118  CA         5.9730  -28.5990    6.3660 C.3   151  ASP151      0.1674
    119  C          4.7400  -29.4350    6.0280 C.2   151  ASP151      0.2266
    120  O          3.6030  -28.9030    5.9870 O.2   151  ASP151     -0.2867
    121  CB         5.9180  -27.2320    5.6650 C.3   151  ASP151      0.1410
    122  CG         5.9320  -27.3570    4.1490 C.2   151  ASP151      0.3668
    123  OD1        5.7380  -28.4750    3.6280 O.co2 151  ASP151     -0.2456
    124  OD2        6.1340  -26.3300    3.4490 O.co2 151  ASP151     -0.2456
    125  N          8.7550  -29.8090   10.9490 N.3   238  LEU238     -0.1245
    126  CA         8.9110  -28.3300   11.0180 C.3   238  LEU238      0.1561
    127  C         10.0270  -27.9730   11.9880 C.2   238  LEU238      0.2260
    128  O         10.6970  -26.9510   11.8070 O.2   238  LEU238     -0.2867
    129  CB         7.6070  -27.6450   11.4440 C.3   238  LEU238      0.0270
    130  CG         6.5550  -27.6150   10.3450 C.3   238  LEU238      0.0019
    131  CD1        5.1710  -27.3330   10.9810 C.3   238  LEU238      0.0001
    132  CD2        6.9220  -26.5480    9.3060 C.3   238  LEU238      0.0001
    133  N         13.1730  -28.6240   10.0560 N.3   241  GLU241     -0.1245
    134  CA        13.2730  -27.5260    9.0970 C.3   241  GLU241      0.1567
    135  C         13.8390  -26.2790    9.7820 C.2   241  GLU241      0.2260
    136  O         14.7570  -25.6750    9.2610 O.2   241  GLU241     -0.2867
    137  CB        11.8930  -27.2440    8.5040 C.3   241  GLU241      0.0388
    138  CG        11.9250  -26.2420    7.3800 C.3   241  GLU241      0.1160
    139  CD        10.5770  -26.0820    6.7040 C.2   241  GLU241      0.3649
    140  OE1       10.3950  -25.1160    5.9150 O.co2 241  GLU241     -0.2457
    141  OE2        9.6940  -26.9340    6.8970 O.co2 241  GLU241     -0.2457
@<TRIPOS>BOND
     1    22    23    1
     2    87    93    1
     3    87    88    1
     4    25    24    2
     5    93    92    1
     6    23    24    1
     7    23    26    1
     8    88    91    1
     9    88    89    1
    10    28    26    1
    11    39    40   ar
    12    39    37   ar
    13     1     2    1
    14    40    38   ar
    15    26    27    1
    16    91    92    1
    17    37    35   ar
    18    89    90    2
    19    89    94   am
    20    77    78    1
    21    79    80    2
    22    79    78    1
    23   104   105    1
    24    94    95    1
    25     2     5    1
    26     2     3    1
    27    38    36   ar
    28    78    81    1
    29     5     6    1
    30    27    29    1
    31    96    95    1
    32    96    97    2
    33    35    36   ar
    34    35    34    1
    35     4     3    2
    36   105   106    1
    37   105   108    1
    38    81    82    1
    39    95    98    1
    40    30    31    1
    41    34    31    1
    42   100    99   ar
    43   100   102   ar
    44    98    99    1
    45     6     7   ar
    46     6     8   ar
    47   106   107    2
    48     7     9   ar
    49    82    84   ar
    50    82    83   ar
    51    84    86   ar
    52    31    32    1
    53    99   101   ar
    54   102   103   ar
    55     8    10   ar
    56    83    85   ar
    57     9    11   ar
    58    86    85   ar
    59   101   103   ar
    60    32    33    2
    61   112   111    2
    62   109   110    1
    63    10    11   ar
    64   124   122   ar
    65    48    46    1
    66   123   122   ar
    67   114   116    1
    68   114   113    1
    69   122   121    1
    70   111   110    1
    71   110   113    1
    72    46    47    1
    73    46    45    1
    74   113   115    1
    75    41    42    1
    76   121   118    1
    77    45    42    1
    78    12    13    1
    79   140   139   ar
    80   120   119    2
    81   119   118    1
    82   117   118    1
    83    42    43    1
    84    19    17   ar
    85    19    21   ar
    86    13    16    1
    87    13    14    1
    88   139   141   ar
    89   139   138    1
    90    16    17    1
    91    17    18   ar
    92   138   137    1
    93    55    53    1
    94    21    20   ar
    95    43    44    2
    96    14    15    2
    97    54    53    1
    98   137   134    1
    99    53    50    1
   100    18    20   ar
   101    69    68   ar
   102    69    67   ar
   103    68    66   ar
   104   134   135    1
   105   134   133    1
   106   136   135    2
   107    76    74    1
   108   132   130    1
   109    49    50    1
   110    50    51    1
   111    67    65   ar
   112    66    63   ar
   113   130   131    1
   114   130   129    1
   115    51    52    2
   116    75    74    1
   117    74    71    1
   118   125   126    1
   119   126   129    1
   120   126   127    1
   121    65    63   ar
   122    65    64   ar
   123    63    61   ar
   124    73    72    2
   125    71    72    1
   126    71    70    1
   127   128   127    2
   128    64    62   ar
   129    61    60    1
   130    61    62   ar
   131    60    57    1
   132    57    56    1
   133    57    58    1
   134    59    58    2
