@<TRIPOS>MOLECULE
tmp/2j5tE01.pdb
 101 95 0 0 0
SMALL
GASTEIGER

@<TRIPOS>ATOM
      1  N        -43.9240   14.8870   86.7730 N.3     8  LYS8       -0.1245
      2  CA       -44.5710   14.2320   87.9050 C.3     8  LYS8        0.1561
      3  C        -44.0380   12.8090   88.0800 C.2     8  LYS8        0.2260
      4  O        -44.1620   11.9680   87.1930 O.2     8  LYS8       -0.2867
      5  CB       -46.0860   14.2170   87.7140 C.3     8  LYS8        0.0271
      6  CG       -46.8710   13.6780   88.8980 C.3     8  LYS8        0.0035
      7  CD       -47.1730   12.1940   88.7610 C.3     8  LYS8        0.0206
      8  CE       -47.8150   11.6390   90.0080 C.3     8  LYS8        0.1093
      9  NZ       -48.1990   10.2230   89.8170 N.3     8  LYS8       -0.1314
     10  N        -44.4710    9.6070   90.3740 N.3    10  GLY10      -0.1210
     11  CA       -45.2340    8.8910   91.3790 C.3    10  GLY10       0.1956
     12  C        -44.3580    7.8990   92.1150 C.2    10  GLY10       0.2612
     13  O        -43.2620    7.5790   91.6690 O.2    10  GLY10      -0.2717
     14  N        -44.8740    7.3930   93.2280 N.am   11  THR11      -0.1952
     15  CA       -44.1050    6.5930   94.1750 C.3    11  THR11       0.1897
     16  C        -43.4740    5.3630   93.5330 C.2    11  THR11       0.2313
     17  O        -42.3170    5.0370   93.7980 O.2    11  THR11      -0.2863
     18  CB       -44.9940    6.1590   95.3690 C.3    11  THR11       0.1794
     19  OG1      -45.6040    7.3130   95.9540 O.3    11  THR11      -0.2208
     20  CG2      -44.1880    5.4360   96.4320 C.3    11  THR11       0.0378
     21  N        -43.7310   12.3590   94.6380 N.3    48  SER48      -0.1202
     22  CA       -44.4740   11.5790   95.6230 C.3    48  SER48       0.2020
     23  C        -43.4560   10.8240   96.4910 C.2    48  SER48       0.2619
     24  O        -42.3240   11.2940   96.6640 O.2    48  SER48      -0.2717
     25  CB       -45.4390   10.6260   94.9080 C.3    48  SER48       0.2103
     26  OG       -46.1700   11.3310   93.9120 O.3    48  SER48      -0.2182
     27  N        -43.8580    9.6790   97.0450 N.am   49  GLY49      -0.1942
     28  CA       -42.9510    8.8100   97.8040 C.3    49  GLY49       0.2014
     29  C        -42.6400    9.2560   99.2210 C.2    49  GLY49       0.2639
     30  O        -41.8500    8.6140   99.9120 O.2    49  GLY49      -0.2714
     31  N        -43.2550   10.3530   99.6560 N.am   50  ALA50      -0.1963
     32  CA       -42.9900   10.9150  100.9720 C.3    50  ALA50       0.1728
     33  C        -43.3710    9.9190  102.0640 C.2    50  ALA50       0.2616
     34  O        -42.5500    9.5860  102.9170 O.2    50  ALA50      -0.2715
     35  CB       -43.7560   12.2080  101.1530 C.3    50  ALA50       0.0334
     36  N        -44.6110    9.4340  102.0230 N.am   51  ILE51      -0.1963
     37  CA       -45.0770    8.4480  103.0030 C.3    51  ILE51       0.1727
     38  C        -44.3370    7.1210  102.8580 C.2    51  ILE51       0.2616
     39  O        -44.1480    6.4080  103.8310 O.2    51  ILE51      -0.2715
     40  CB       -46.6170    8.2630  102.9280 C.3    51  ILE51       0.0290
     41  CG1      -47.3060    9.5110  103.4920 C.3    51  ILE51       0.0022
     42  CG2      -47.0850    7.0270  103.7090 C.3    51  ILE51       0.0023
     43  CD1      -48.7050    9.7250  102.9750 C.3    51  ILE51       0.0001
     44  N        -43.9000    6.8030  101.6490 N.am   52  ALA52      -0.1977
     45  CA       -43.0850    5.6070  101.4130 C.3    52  ALA52       0.1597
     46  C        -41.7080    5.7250  102.0900 C.2    52  ALA52       0.2287
     47  O        -41.2350    4.7960  102.7620 O.2    52  ALA52      -0.2864
     48  CB       -42.9220    5.3760   99.8960 C.3    52  ALA52       0.0319
     49  N        -44.6340   19.1540   96.3990 N.3   132  ASN132     -0.1225
     50  CA       -45.3700   18.0080   96.9020 C.3   132  ASN132      0.1785
     51  C        -46.5450   18.5570   97.6860 C.2   132  ASN132      0.2597
     52  O        -46.5470   19.7260   98.0720 O.2   132  ASN132     -0.2718
     53  CB       -44.4760   17.1160   97.7760 C.3   132  ASN132      0.1169
     54  CG       -45.1020   15.7470   98.0950 C.2   132  ASN132      0.2627
     55  OD1      -46.2340   15.4480   97.7120 O.2   132  ASN132     -0.2716
     56  ND2      -44.3550   14.9150   98.8120 N.am  132  ASN132     -0.0877
     57  N        -47.5660   17.7240   97.8650 N.am  133  GLU133     -0.1979
     58  CA       -48.6780   18.0190   98.7610 C.3   133  GLU133      0.1602
     59  C        -48.1130   18.2300  100.1600 C.2   133  GLU133      0.2287
     60  O        -47.1920   17.5400  100.5580 O.2   133  GLU133     -0.2864
     61  CB       -49.6620   16.8410   98.7510 C.3   133  GLU133      0.0415
     62  CG       -50.9090   17.0060   99.6270 C.3   133  GLU133      0.1163
     63  CD       -52.1760   17.3020   98.8320 C.2   133  GLU133      0.3649
     64  OE1      -52.6090   18.4790   98.8550 O.co2 133  GLU133     -0.2457
     65  OE2      -52.7390   16.3630   98.1990 O.co2 133  GLU133     -0.2457
     66  N        -48.6830   16.9690  102.9110 N.3   135  ASP135     -0.1239
     67  CA       -49.3560   15.8410  103.5830 C.3   135  ASP135      0.1674
     68  C        -49.2120   15.8860  105.0990 C.2   135  ASP135      0.2266
     69  O        -50.0990   15.4140  105.8070 O.2   135  ASP135     -0.2867
     70  CB       -48.7770   14.5010  103.1170 C.3   135  ASP135      0.1410
     71  CG       -48.9420   14.2690  101.6380 C.2   135  ASP135      0.3668
     72  OD1      -50.0730   13.9550  101.1950 O.co2 135  ASP135     -0.2456
     73  OD2      -47.9260   14.3860  100.9240 O.co2 135  ASP135     -0.2456
     74  N        -55.3770   15.5520   97.1300 N.3   145  GLY145     -0.1210
     75  CA       -55.7280   14.1430   97.2360 C.3   145  GLY145      0.1956
     76  C        -54.9520   13.2320   96.3090 C.2   145  GLY145      0.2612
     77  O        -54.9820   12.0170   96.4900 O.2   145  GLY145     -0.2717
     78  N        -54.2860   13.8120   95.3070 N.am  146  ASP146     -0.1959
     79  CA       -53.3710   13.0690   94.4280 C.3   146  ASP146      0.1840
     80  C        -52.4510   13.9770   93.5950 C.2   146  ASP146      0.2622
     81  O        -52.9000   14.9270   92.9480 O.2   146  ASP146     -0.2715
     82  CB       -54.1310   12.1290   93.4840 C.3   146  ASP146      0.1450
     83  CG       -54.9620   12.8710   92.4700 C.2   146  ASP146      0.3671
     84  OD1      -56.0160   13.4180   92.8520 O.co2 146  ASP146     -0.2456
     85  OD2      -54.5610   12.9100   91.2920 O.co2 146  ASP146     -0.2456
     86  N        -51.1670   13.6290   93.5960 N.am  147  ASN147     -0.1958
     87  CA       -50.1330   14.4160   92.9390 C.3   147  ASN147      0.1819
     88  C        -50.2740   14.5100   91.4090 C.2   147  ASN147      0.2621
     89  O        -49.5940   15.3230   90.7790 O.2   147  ASN147     -0.2715
     90  CB       -48.7290   13.8860   93.3000 C.3   147  ASN147      0.1195
     91  CG       -48.2110   14.4180   94.6350 C.2   147  ASN147      0.2630
     92  OD1      -48.9660   14.9070   95.4760 O.2   147  ASN147     -0.2716
     93  ND2      -46.9070   14.3200   94.8250 N.am  147  ASN147     -0.0877
     94  N        -51.1270   13.6870   90.7990 N.am  148  ASP148     -0.1971
     95  CA       -51.4300   13.8600   89.3770 C.3   148  ASP148      0.1709
     96  C        -52.1220   15.2100   89.1640 C.2   148  ASP148      0.2293
     97  O        -51.6500   16.0450   88.3830 O.2   148  ASP148     -0.2864
     98  CB       -52.3170   12.7340   88.8460 C.3   148  ASP148      0.1436
     99  CG       -51.5810   11.4080   88.7150 C.2   148  ASP148      0.3671
    100  OD1      -50.3990   11.4120   88.3030 O.co2 148  ASP148     -0.2456
    101  OD2      -52.1980   10.3520   89.0060 O.co2 148  ASP148     -0.2456
@<TRIPOS>BOND
     1     1     2    1
     2     4     3    2
     3     5     2    1
     4     5     6    1
     5     2     3    1
     6   100    99   ar
     7    97    96    2
     8    99    98    1
     9    99   101   ar
    10     7     6    1
    11     7     8    1
    12    98    95    1
    13    96    95    1
    14    95    94    1
    15     9     8    1
    16    10    11    1
    17    89    88    2
    18    94    88   am
    19    85    83   ar
    20    11    12    1
    21    88    87    1
    22    13    12    2
    23    12    14   am
    24    83    84   ar
    25    83    82    1
    26    87    90    1
    27    87    86    1
    28    81    80    2
    29    14    15    1
    30    90    91    1
    31    82    79    1
    32    16    17    2
    33    16    15    1
    34    80    86   am
    35    80    79    1
    36    26    25    1
    37    15    18    1
    38    79    78    1
    39    91    93   am
    40    91    92    2
    41    21    22    1
    42    25    22    1
    43    78    76   am
    44    18    19    1
    45    18    20    1
    46    22    23    1
    47    76    77    2
    48    76    75    1
    49    49    50    1
    50    23    24    2
    51    23    27   am
    52    50    51    1
    53    50    53    1
    54    27    28    1
    55    74    75    1
    56    51    57   am
    57    51    52    2
    58    55    54    2
    59    53    54    1
    60    28    29    1
    61    57    58    1
    62    54    56   am
    63    65    63   ar
    64    61    58    1
    65    61    62    1
    66    58    59    1
    67    63    64   ar
    68    63    62    1
    69    29    31   am
    70    29    30    2
    71    31    32    1
    72    48    45    1
    73    59    60    2
    74    73    71   ar
    75    32    35    1
    76    32    33    1
    77    72    71   ar
    78    45    44    1
    79    45    46    1
    80    71    70    1
    81    44    38   am
    82    36    33   am
    83    36    37    1
    84    33    34    2
    85    46    47    2
    86    38    37    1
    87    38    39    2
    88    66    67    1
    89    40    37    1
    90    40    41    1
    91    40    42    1
    92    43    41    1
    93    70    67    1
    94    67    68    1
    95    68    69    2
