@<TRIPOS>MOLECULE
tmp/2j5tE00.pdb
 82 76 0 0 0
SMALL
GASTEIGER

@<TRIPOS>ATOM
      1  N        -81.3780   23.5830   89.6610 N.3   279  ASP279     -0.1239
      2  CA       -82.4280   23.1760   88.7040 C.3   279  ASP279      0.1674
      3  C        -81.9770   22.2800   87.5620 C.2   279  ASP279      0.2266
      4  O        -80.7980   22.2120   87.2240 O.2   279  ASP279     -0.2867
      5  CB       -83.0390   24.4280   88.0390 C.3   279  ASP279      0.1410
      6  CG       -84.4320   24.7440   88.5190 C.2   279  ASP279      0.3668
      7  OD1      -84.7520   24.4550   89.6940 O.co2 279  ASP279     -0.2456
      8  OD2      -85.2090   25.2970   87.7020 O.co2 279  ASP279     -0.2456
      9  N        -83.3540   23.0780   84.6430 N.3   281  GLY281     -0.1210
     10  CA       -83.2360   24.1790   83.6850 C.3   281  GLY281      0.1956
     11  C        -81.9530   24.9760   83.8240 C.2   281  GLY281      0.2611
     12  O        -81.4080   25.4600   82.8340 O.2   281  GLY281     -0.2717
     13  N        -81.4730   25.1100   85.0570 N.am  282  ALA282     -0.1979
     14  CA       -80.2320   25.8300   85.3530 C.3   282  ALA282      0.1597
     15  C        -79.0270   24.9890   84.9630 C.2   282  ALA282      0.2287
     16  O        -78.0810   25.4910   84.3530 O.2   282  ALA282     -0.2864
     17  CB       -80.1630   26.1710   86.8280 C.3   282  ALA282      0.0319
     18  N        -78.6350   25.6080   81.3900 N.3   285  ALA285     -0.1231
     19  CA       -78.1100   26.9380   81.0970 C.3   285  ALA285      0.1694
     20  C        -76.6110   27.0070   81.3740 C.2   285  ALA285      0.2591
     21  O        -75.8550   27.5580   80.5750 O.2   285  ALA285     -0.2718
     22  CB       -78.8420   27.9910   81.9150 C.3   285  ALA285      0.0304
     23  N        -76.1920   26.4450   82.5040 N.am  286  ILE286     -0.1980
     24  CA       -74.7860   26.4500   82.8980 C.3   286  ILE286      0.1595
     25  C        -73.9200   25.6480   81.9270 C.2   286  ILE286      0.2287
     26  O        -72.8940   26.1370   81.4540 O.2   286  ILE286     -0.2864
     27  CB       -74.6000   25.8660   84.3220 C.3   286  ILE286      0.0276
     28  CG1      -75.1320   26.8490   85.3670 C.3   286  ILE286      0.0022
     29  CG2      -73.1290   25.5650   84.6070 C.3   286  ILE286      0.0022
     30  CD1      -75.1210   26.3060   86.7970 C.3   286  ILE286      0.0001
     31  N        -75.2610   26.2100   77.6540 N.3   289  ARG289     -0.1245
     32  CA       -75.2220   27.5680   77.1060 C.3   289  ARG289      0.1563
     33  C        -74.2060   28.5090   77.7610 C.2   289  ARG289      0.2260
     34  O        -74.1750   29.6910   77.4460 O.2   289  ARG289     -0.2867
     35  CB       -76.6330   28.1660   77.1400 C.3   289  ARG289      0.0307
     36  CG       -77.6440   27.2890   76.4000 C.3   289  ARG289      0.0489
     37  CD       -78.9170   28.0280   76.0740 C.3   289  ARG289      0.2205
     38  NE       -79.5380   28.5340   77.2920 N.pl3 289  ARG289     -0.0865
     39  CZ       -80.2970   27.8210   78.1250 C.cat 289  ARG289      0.5346
     40  NH1      -80.5670   26.5410   77.8940 N.pl3 289  ARG289      0.1354
     41  NH2      -80.7960   28.4050   79.2080 N.pl3 289  ARG289      0.1354
     42  N        -74.0440   29.8270   80.7100 N.3   291  SER291     -0.1202
     43  CA       -74.7760   30.9140   81.3510 C.3   291  SER291      0.2020
     44  C        -74.3670   31.1030   82.8040 C.2   291  SER291      0.2619
     45  O        -73.8090   30.2000   83.4390 O.2   291  SER291     -0.2717
     46  CB       -76.2760   30.6330   81.3010 C.3   291  SER291      0.2103
     47  OG       -76.6560   30.0800   80.0530 O.3   291  SER291     -0.2182
     48  N        -74.6560   32.2910   83.3240 N.am  292  SER292     -0.1937
     49  CA       -74.4980   32.5590   84.7450 C.3   292  SER292      0.2055
     50  C        -75.6270   31.8790   85.5070 C.2   292  SER292      0.2643
     51  O        -76.7070   31.6590   84.9660 O.2   292  SER292     -0.2714
     52  CB       -74.4950   34.0610   85.0220 C.3   292  SER292      0.2130
     53  OG       -73.2550   34.6220   84.6570 O.3   292  SER292     -0.2179
     54  N        -75.3590   31.5310   86.7580 N.am  293  LEU293     -0.1963
     55  CA       -76.3730   30.9680   87.6330 C.3   293  LEU293      0.1728
     56  C        -77.1570   32.0950   88.2800 C.2   293  LEU293      0.2616
     57  O        -76.5800   32.9690   88.9180 O.2   293  LEU293     -0.2715
     58  CB       -75.7320   30.1100   88.7170 C.3   293  LEU293      0.0311
     59  CG       -76.6730   29.5000   89.7550 C.3   293  LEU293      0.0022
     60  CD1      -77.6420   28.5140   89.1300 C.3   293  LEU293      0.0001
     61  CD2      -75.8410   28.8140   90.8260 C.3   293  LEU293      0.0001
     62  N        -78.4710   32.0690   88.0940 N.am  294  LEU294     -0.1977
     63  CA       -79.3740   32.9710   88.7840 C.3   294  LEU294      0.1596
     64  C        -79.9700   32.2520   89.9980 C.2   294  LEU294      0.2287
     65  O        -80.2140   31.0420   89.9400 O.2   294  LEU294     -0.2864
     66  CB       -80.4940   33.4050   87.8460 C.3   294  LEU294      0.0297
     67  CG       -80.0850   34.1780   86.5950 C.3   294  LEU294      0.0022
     68  CD1      -81.2780   34.3470   85.6660 C.3   294  LEU294      0.0001
     69  CD2      -79.5220   35.5260   86.9770 C.3   294  LEU294      0.0001
     70  N        -82.9540   32.1830   91.1100 N.3   296  LYS296     -0.1231
     71  CA       -84.1500   31.4950   90.5720 C.3   296  LYS296      0.1693
     72  C        -84.0260   29.9650   90.6140 C.2   296  LYS296      0.2592
     73  O        -84.9030   29.2800   91.1410 O.2   296  LYS296     -0.2718
     74  CB       -84.3770   31.8890   89.1050 C.3   296  LYS296      0.0285
     75  CG       -84.9500   33.2840   88.8200 C.3   296  LYS296      0.0035
     76  CD       -84.8160   33.6090   87.2920 C.3   296  LYS296      0.0206
     77  CE       -85.6010   34.8600   86.8100 C.3   296  LYS296      0.1093
     78  NZ       -84.8610   36.1600   86.9790 N.3   296  LYS296     -0.1314
     79  N        -82.9330   29.4480   90.0440 N.am  297  GLY297     -0.1957
     80  CA       -82.7200   28.0020   89.8840 C.3   297  GLY297      0.1869
     81  C        -82.0590   27.2480   91.0310 C.2   297  GLY297      0.2309
     82  O        -81.9000   26.0340   90.9610 O.2   297  GLY297     -0.2863
@<TRIPOS>BOND
     1    37    36    1
     2    37    38    1
     3    36    35    1
     4    32    35    1
     5    32    31    1
     6    32    33    1
     7    38    39    2
     8    34    33    2
     9    40    39    1
    10    39    41    1
    11    47    46    1
    12    21    20    2
    13    42    43    1
    14    19    20    1
    15    19    18    1
    16    19    22    1
    17    46    43    1
    18    43    44    1
    19    20    23   am
    20    26    25    2
    21    25    24    1
    22    23    24    1
    23    44    48   am
    24    44    45    2
    25    12    11    2
    26    24    27    1
    27    48    49    1
    28    10    11    1
    29    10     9    1
    30    11    13   am
    31    27    29    1
    32    27    28    1
    33    16    15    2
    34    53    52    1
    35    49    52    1
    36    49    50    1
    37    15    14    1
    38    51    50    2
    39    13    14    1
    40    14    17    1
    41    28    30    1
    42    50    54   am
    43    68    67    1
    44    67    69    1
    45    67    66    1
    46    54    55    1
    47    77    78    1
    48    77    76    1
    49     4     3    2
    50    76    75    1
    51     3     2    1
    52    55    56    1
    53    55    58    1
    54     8     6   ar
    55    66    63    1
    56     5     6    1
    57     5     2    1
    58    62    56   am
    59    62    63    1
    60    56    57    2
    61     6     7   ar
    62     2     1    1
    63    58    59    1
    64    63    64    1
    65    75    74    1
    66    74    71    1
    67    60    59    1
    68    59    61    1
    69    80    79    1
    70    80    81    1
    71    65    64    2
    72    79    72   am
    73    71    72    1
    74    71    70    1
    75    72    73    2
    76    82    81    2
