@<TRIPOS>MOLECULE
tmp/2j5vB01.pdb
 103 94 0 0 0
SMALL
GASTEIGER

@<TRIPOS>ATOM
      1  N        -31.0210   -3.5710  -35.3430 N.3     8  LYS8       -0.1245
      2  CA       -29.7900   -3.9250  -34.6350 C.3     8  LYS8        0.1561
      3  C        -28.7940   -4.4900  -35.6310 C.2     8  LYS8        0.2260
      4  O        -29.0910   -5.4440  -36.3610 O.2     8  LYS8       -0.2867
      5  CB       -30.0880   -4.9660  -33.5530 C.3     8  LYS8        0.0271
      6  CG       -28.8860   -5.4520  -32.7550 C.3     8  LYS8        0.0035
      7  CD       -28.2180   -6.7120  -33.3330 C.3     8  LYS8        0.0206
      8  CE       -26.8760   -6.9460  -32.6440 C.3     8  LYS8        0.1093
      9  NZ       -26.2740   -8.3130  -32.8230 N.3     8  LYS8       -0.1314
     10  N        -25.0730   -6.0890  -35.7310 N.3    10  GLY10      -0.1210
     11  CA       -23.9020   -6.5660  -35.0250 C.3    10  GLY10       0.1956
     12  C        -22.6610   -6.5110  -35.8930 C.2    10  GLY10       0.2612
     13  O        -22.7260   -6.1540  -37.0690 O.2    10  GLY10      -0.2717
     14  N        -21.5280   -6.8950  -35.3190 N.am   11  THR11      -0.1952
     15  CA       -20.2290   -6.6470  -35.9420 C.3    11  THR11       0.1897
     16  C        -20.0460   -7.3380  -37.3020 C.2    11  THR11       0.2313
     17  O        -19.5730   -6.7060  -38.2570 O.2    11  THR11      -0.2863
     18  CB       -19.0630   -6.9610  -34.9630 C.3    11  THR11       0.1794
     19  OG1      -19.2180   -6.1770  -33.7670 O.3    11  THR11      -0.2208
     20  CG2      -17.7180   -6.6410  -35.5900 C.3    11  THR11       0.0378
     21  N        -23.1070   -2.1440  -33.3630 N.3    48  SER48      -0.1217
     22  CA       -21.8490   -2.6480  -32.8160 C.3    48  SER48       0.1889
     23  C        -20.6790   -1.9470  -33.5550 C.2    48  SER48       0.2288
     24  O        -20.8360   -0.8100  -34.0720 O.2    48  SER48      -0.2866
     25  CB       -21.7680   -4.1620  -32.9940 C.3    48  SER48       0.2089
     26  OG       -22.8120   -4.8180  -32.3010 O.3    48  SER48      -0.2183
     27  N        -15.0190   -1.4460  -31.4170 N.3    51  ILE51      -0.1245
     28  CA       -13.7130   -2.0870  -31.3290 C.3    51  ILE51       0.1561
     29  C        -13.1170   -2.4140  -32.6980 C.2    51  ILE51       0.2260
     30  O        -11.9270   -2.1480  -32.9400 O.2    51  ILE51      -0.2867
     31  CB       -13.7800   -3.3260  -30.4200 C.3    51  ILE51       0.0252
     32  CG1      -13.8760   -2.8640  -28.9620 C.3    51  ILE51       0.0019
     33  CG2      -12.5970   -4.2420  -30.6370 C.3    51  ILE51       0.0019
     34  CD1      -14.4350   -3.9270  -27.9930 C.3    51  ILE51       0.0001
     35  N        -25.3460    2.4160  -28.7790 N.3   132  ASN132     -0.1225
     36  CA       -24.3650    1.4010  -28.5080 C.3   132  ASN132      0.1785
     37  C        -24.0950    1.3500  -26.9960 C.2   132  ASN132      0.2597
     38  O        -24.4680    2.2730  -26.2530 O.2   132  ASN132     -0.2718
     39  CB       -23.0720    1.7080  -29.2790 C.3   132  ASN132      0.1169
     40  CG       -22.1500    0.4900  -29.3920 C.2   132  ASN132      0.2627
     41  OD1      -22.4940   -0.6150  -28.9380 O.2   132  ASN132     -0.2716
     42  ND2      -20.9890    0.6790  -30.0240 N.am  132  ASN132     -0.0877
     43  N        -23.4570    0.2700  -26.5420 N.am  133  GLU133     -0.1979
     44  CA       -23.0360    0.1570  -25.1530 C.3   133  GLU133      0.1602
     45  C        -21.9310    1.1790  -24.9740 C.2   133  GLU133      0.2287
     46  O        -21.1760    1.4290  -25.9270 O.2   133  GLU133     -0.2864
     47  CB       -22.5020   -1.2430  -24.8760 C.3   133  GLU133      0.0415
     48  CG       -22.2150   -1.5340  -23.4230 C.3   133  GLU133      0.1163
     49  CD       -23.0830   -2.6470  -22.8300 C.2   133  GLU133      0.3649
     50  OE1      -23.8020   -2.3670  -21.8390 O.co2 133  GLU133     -0.2457
     51  OE2      -23.0280   -3.8020  -23.3420 O.co2 133  GLU133     -0.2457
     52  N        -18.8220    1.3070  -24.1440 N.3   135  ASP135     -0.1239
     53  CA       -17.6630    0.4360  -23.9270 C.3   135  ASP135      0.1674
     54  C        -16.4140    1.1420  -23.3790 C.2   135  ASP135      0.2266
     55  O        -15.6670    0.5530  -22.6140 O.2   135  ASP135     -0.2867
     56  CB       -17.3030   -0.3030  -25.2150 C.3   135  ASP135      0.1410
     57  CG       -18.3320   -1.3450  -25.6060 C.2   135  ASP135      0.3668
     58  OD1      -18.7130   -2.1870  -24.7510 O.co2 135  ASP135     -0.2456
     59  OD2      -18.7400   -1.3410  -26.7920 O.co2 135  ASP135     -0.2456
     60  N        -22.3860   -3.6850  -17.6090 N.3   143  LYS143     -0.1245
     61  CA       -22.6770   -3.7990  -19.0490 C.3   143  LYS143      0.1561
     62  C        -23.8510   -4.7310  -19.3480 C.2   143  LYS143      0.2260
     63  O        -24.0850   -5.7060  -18.6300 O.2   143  LYS143     -0.2867
     64  CB       -21.4560   -4.3510  -19.7860 C.3   143  LYS143      0.0271
     65  CG       -20.2710   -3.3920  -20.0390 C.3   143  LYS143      0.0035
     66  CD       -19.5260   -3.9030  -21.2860 C.3   143  LYS143      0.0206
     67  CE       -18.1940   -3.2440  -21.5420 C.3   143  LYS143      0.1093
     68  NZ       -17.1190   -3.8030  -20.6720 N.3   143  LYS143     -0.1314
     69  N        -23.6440   -6.4400  -22.1440 N.3   145  GLY145     -0.1210
     70  CA       -22.7620   -7.5360  -22.4810 C.3   145  GLY145      0.1956
     71  C        -22.9640   -8.0950  -23.8720 C.2   145  GLY145      0.2612
     72  O        -22.1140   -8.8130  -24.3560 O.2   145  GLY145     -0.2717
     73  N        -24.0920   -7.7910  -24.5090 N.am  146  ASP146     -0.1959
     74  CA       -24.2920   -8.1380  -25.9060 C.3   146  ASP146      0.1840
     75  C        -25.3110   -7.1930  -26.5100 C.2   146  ASP146      0.2622
     76  O        -26.2680   -6.7960  -25.8320 O.2   146  ASP146     -0.2715
     77  CB       -24.7300   -9.6040  -26.0790 C.3   146  ASP146      0.1450
     78  CG       -26.2030   -9.8250  -25.7480 C.2   146  ASP146      0.3671
     79  OD1      -26.5110  -10.2020  -24.6080 O.co2 146  ASP146     -0.2456
     80  OD2      -27.0590   -9.6140  -26.6270 O.co2 146  ASP146     -0.2456
     81  N        -25.1160   -6.8450  -27.7810 N.am  147  ASN147     -0.1958
     82  CA       -26.0100   -5.8860  -28.4100 C.3   147  ASN147      0.1819
     83  C        -27.4140   -6.3760  -28.7930 C.2   147  ASN147      0.2621
     84  O        -28.3220   -5.5390  -29.0150 O.2   147  ASN147     -0.2715
     85  CB       -25.3300   -5.1260  -29.5490 C.3   147  ASN147      0.1195
     86  CG       -24.5850   -3.9060  -29.0480 C.2   147  ASN147      0.2630
     87  OD1      -24.2070   -3.8450  -27.8770 O.2   147  ASN147     -0.2716
     88  ND2      -24.3740   -2.9280  -29.9220 N.am  147  ASN147     -0.0877
     89  N        -27.5970   -7.7020  -28.8400 N.am  148  ASP148     -0.1971
     90  CA       -28.9190   -8.2690  -29.0860 C.3   148  ASP148      0.1709
     91  C        -29.8600   -7.8460  -27.9670 C.2   148  ASP148      0.2293
     92  O        -30.8500   -7.1370  -28.1980 O.2   148  ASP148     -0.2864
     93  CB       -28.8490   -9.7920  -29.2310 C.3   148  ASP148      0.1436
     94  CG       -28.2320  -10.2250  -30.5470 C.2   148  ASP148      0.3671
     95  OD1      -28.3210   -9.4780  -31.5310 O.co2 148  ASP148     -0.2456
     96  OD2      -27.6510  -11.3130  -30.6150 O.co2 148  ASP148     -0.2456
     97  N        -28.4040  -15.3400  -27.8420 N.3   174  THR174     -0.1218
     98  CA       -28.6530  -13.9930  -27.3400 C.3   174  THR174      0.1862
     99  C        -29.7880  -13.3810  -28.1270 C.2   174  THR174      0.2287
    100  O        -30.5410  -12.5670  -27.5940 O.2   174  THR174     -0.2866
    101  CB       -27.4020  -13.0240  -27.3370 C.3   174  THR174      0.1770
    102  OG1      -26.8370  -12.9120  -28.6510 O.3   174  THR174     -0.2211
    103  CG2      -26.3430  -13.4560  -26.3280 C.3   174  THR174      0.0375
@<TRIPOS>BOND
     1    17    16    2
     2    16    15    1
     3    13    12    2
     4     4     3    2
     5    15    14    1
     6    15    18    1
     7    12    14   am
     8    12    11    1
     9    10    11    1
    10     3     2    1
    11    20    18    1
    12     1     2    1
    13    18    19    1
    14     2     5    1
    15    24    23    2
    16    23    22    1
    17     5     6    1
    18    21    22    1
    19     7     6    1
    20     7     8    1
    21    25    22    1
    22    25    26    1
    23    30    29    2
    24     9     8    1
    25    29    28    1
    26    95    94   ar
    27    27    28    1
    28    28    31    1
    29    33    31    1
    30    96    94   ar
    31    94    93    1
    32    31    32    1
    33    42    40   am
    34    88    86   am
    35    85    86    1
    36    85    82    1
    37    40    39    1
    38    40    41    2
    39    39    36    1
    40    93    90    1
    41    90    89    1
    42    90    91    1
    43    86    87    2
    44    84    83    2
    45    32    34    1
    46    89    83   am
    47    83    82    1
    48    35    36    1
    49   102   101    1
    50    36    37    1
    51    82    81    1
    52    92    91    2
    53    99   100    2
    54    99    98    1
    55    97    98    1
    56    81    75   am
    57    98   101    1
    58   101   103    1
    59    37    43   am
    60    37    38    2
    61    59    57   ar
    62    80    78   ar
    63    43    44    1
    64    75    74    1
    65    75    76    2
    66    77    74    1
    67    77    78    1
    68    46    45    2
    69    74    73    1
    70    78    79   ar
    71    57    56    1
    72    57    58   ar
    73    56    53    1
    74    44    45    1
    75    44    47    1
    76    47    48    1
    77    73    71   am
    78    72    71    2
    79    52    53    1
    80    53    54    1
    81    71    70    1
    82    48    49    1
    83    54    55    2
    84    51    49   ar
    85    49    50   ar
    86    70    69    1
    87    67    66    1
    88    67    68    1
    89    66    65    1
    90    65    64    1
    91    64    61    1
    92    62    61    1
    93    62    63    2
    94    61    60    1
