@<TRIPOS>MOLECULE
tmp/2j5vB00.pdb
 68 63 0 0 0
SMALL
GASTEIGER

@<TRIPOS>ATOM
      1  N        -21.5280   -6.8950  -35.3190 N.3    11  THR11      -0.1218
      2  CA       -20.2290   -6.6470  -35.9420 C.3    11  THR11       0.1862
      3  C        -20.0460   -7.3380  -37.3020 C.2    11  THR11       0.2287
      4  O        -19.5730   -6.7060  -38.2570 O.2    11  THR11      -0.2866
      5  CB       -19.0630   -6.9610  -34.9630 C.3    11  THR11       0.1770
      6  OG1      -19.2180   -6.1770  -33.7670 O.3    11  THR11      -0.2211
      7  CG2      -17.7180   -6.6410  -35.5900 C.3    11  THR11       0.0375
      8  N        -23.1070   -2.1440  -33.3630 N.3    48  SER48      -0.1202
      9  CA       -21.8490   -2.6480  -32.8160 C.3    48  SER48       0.2020
     10  C        -20.6790   -1.9470  -33.5550 C.2    48  SER48       0.2619
     11  O        -20.8360   -0.8100  -34.0720 O.2    48  SER48      -0.2717
     12  CB       -21.7680   -4.1620  -32.9940 C.3    48  SER48       0.2103
     13  OG       -22.8120   -4.8180  -32.3010 O.3    48  SER48      -0.2182
     14  N        -19.5150   -2.5960  -33.5990 N.am   49  GLY49      -0.1942
     15  CA       -18.4010   -2.1280  -34.4210 C.3    49  GLY49       0.2014
     16  C        -17.3540   -1.1650  -33.8540 C.2    49  GLY49       0.2639
     17  O        -16.3370   -0.9260  -34.5140 O.2    49  GLY49      -0.2714
     18  N        -17.5750   -0.6260  -32.6500 N.am   50  ALA50      -0.1963
     19  CA       -16.6250    0.3030  -32.0050 C.3    50  ALA50       0.1728
     20  C        -15.1880   -0.2440  -31.9530 C.2    50  ALA50       0.2616
     21  O        -14.2540    0.3940  -32.4250 O.2    50  ALA50      -0.2715
     22  CB       -17.1060    0.6840  -30.5990 C.3    50  ALA50       0.0334
     23  N        -15.0190   -1.4460  -31.4170 N.am   51  ILE51      -0.1963
     24  CA       -13.7130   -2.0870  -31.3290 C.3    51  ILE51       0.1727
     25  C        -13.1170   -2.4140  -32.6980 C.2    51  ILE51       0.2616
     26  O        -11.9270   -2.1480  -32.9400 O.2    51  ILE51      -0.2715
     27  CB       -13.7800   -3.3260  -30.4200 C.3    51  ILE51       0.0290
     28  CG1      -13.8760   -2.8640  -28.9620 C.3    51  ILE51       0.0022
     29  CG2      -12.5970   -4.2420  -30.6370 C.3    51  ILE51       0.0023
     30  CD1      -14.4350   -3.9270  -27.9930 C.3    51  ILE51       0.0001
     31  N        -13.9250   -2.9710  -33.5990 N.am   52  ALA52      -0.1977
     32  CA       -13.4320   -3.2250  -34.9580 C.3    52  ALA52       0.1597
     33  C        -12.9890   -1.9260  -35.6340 C.2    52  ALA52       0.2287
     34  O        -11.8950   -1.8720  -36.1960 O.2    52  ALA52      -0.2864
     35  CB       -14.4540   -3.9510  -35.7980 C.3    52  ALA52       0.0319
     36  N        -25.3460    2.4160  -28.7790 N.3   132  ASN132     -0.1225
     37  CA       -24.3650    1.4010  -28.5080 C.3   132  ASN132      0.1785
     38  C        -24.0950    1.3500  -26.9960 C.2   132  ASN132      0.2597
     39  O        -24.4680    2.2730  -26.2530 O.2   132  ASN132     -0.2718
     40  CB       -23.0720    1.7080  -29.2790 C.3   132  ASN132      0.1169
     41  CG       -22.1500    0.4900  -29.3920 C.2   132  ASN132      0.2627
     42  OD1      -22.4940   -0.6150  -28.9380 O.2   132  ASN132     -0.2716
     43  ND2      -20.9890    0.6790  -30.0240 N.am  132  ASN132     -0.0877
     44  N        -23.4570    0.2700  -26.5420 N.am  133  GLU133     -0.1979
     45  CA       -23.0360    0.1570  -25.1530 C.3   133  GLU133      0.1602
     46  C        -21.9310    1.1790  -24.9740 C.2   133  GLU133      0.2287
     47  O        -21.1760    1.4290  -25.9270 O.2   133  GLU133     -0.2864
     48  CB       -22.5020   -1.2430  -24.8760 C.3   133  GLU133      0.0415
     49  CG       -22.2150   -1.5340  -23.4230 C.3   133  GLU133      0.1163
     50  CD       -23.0830   -2.6470  -22.8300 C.2   133  GLU133      0.3649
     51  OE1      -23.8020   -2.3670  -21.8390 O.co2 133  GLU133     -0.2457
     52  OE2      -23.0280   -3.8020  -23.3420 O.co2 133  GLU133     -0.2457
     53  N        -18.8220    1.3070  -24.1440 N.3   135  ASP135     -0.1239
     54  CA       -17.6630    0.4360  -23.9270 C.3   135  ASP135      0.1674
     55  C        -16.4140    1.1420  -23.3790 C.2   135  ASP135      0.2266
     56  O        -15.6670    0.5530  -22.6140 O.2   135  ASP135     -0.2867
     57  CB       -17.3030   -0.3030  -25.2150 C.3   135  ASP135      0.1410
     58  CG       -18.3320   -1.3450  -25.6060 C.2   135  ASP135      0.3668
     59  OD1      -18.7130   -2.1870  -24.7510 O.co2 135  ASP135     -0.2456
     60  OD2      -18.7400   -1.3410  -26.7920 O.co2 135  ASP135     -0.2456
     61  N        -25.1160   -6.8450  -27.7810 N.3   147  ASN147     -0.1240
     62  CA       -26.0100   -5.8860  -28.4100 C.3   147  ASN147      0.1653
     63  C        -27.4140   -6.3760  -28.7930 C.2   147  ASN147      0.2266
     64  O        -28.3220   -5.5390  -29.0150 O.2   147  ASN147     -0.2867
     65  CB       -25.3300   -5.1260  -29.5490 C.3   147  ASN147      0.1155
     66  CG       -24.5850   -3.9060  -29.0480 C.2   147  ASN147      0.2627
     67  OD1      -24.2070   -3.8450  -27.8770 O.2   147  ASN147     -0.2716
     68  ND2      -24.3740   -2.9280  -29.9220 N.am  147  ASN147     -0.0877
@<TRIPOS>BOND
     1     4     3    2
     2     3     2    1
     3    34    33    2
     4     2     1    1
     5     2     5    1
     6    35    32    1
     7    33    32    1
     8     7     5    1
     9     5     6    1
    10    32    31    1
    11    17    16    2
    12    15    16    1
    13    15    14    1
    14    11    10    2
    15    16    18   am
    16    14    10   am
    17    31    25   am
    18    10     9    1
    19     8     9    1
    20    12     9    1
    21    12    13    1
    22    26    25    2
    23    25    24    1
    24    18    19    1
    25    21    20    2
    26    19    20    1
    27    19    22    1
    28    20    23   am
    29    23    24    1
    30    24    27    1
    31    29    27    1
    32    27    28    1
    33    43    41   am
    34    68    66   am
    35    65    66    1
    36    65    62    1
    37    41    40    1
    38    41    42    2
    39    40    37    1
    40    66    67    2
    41    64    63    2
    42    28    30    1
    43    63    62    1
    44    36    37    1
    45    37    38    1
    46    62    61    1
    47    38    44   am
    48    38    39    2
    49    60    58   ar
    50    44    45    1
    51    47    46    2
    52    58    57    1
    53    58    59   ar
    54    57    54    1
    55    45    46    1
    56    45    48    1
    57    48    49    1
    58    53    54    1
    59    54    55    1
    60    49    50    1
    61    55    56    2
    62    52    50   ar
    63    50    51   ar
