@<TRIPOS>MOLECULE
tmp/2j65B01.pdb
 125 123 0 0 0
SMALL
GASTEIGER

@<TRIPOS>ATOM
      1  N         10.7500  -11.8080   38.0210 N.3   136  ARG136     -0.1245
      2  CA        12.0580  -12.2720   37.5810 C.3   136  ARG136      0.1563
      3  C         12.4970  -13.2350   38.6550 C.2   136  ARG136      0.2260
      4  O         12.1860  -13.0340   39.8280 O.2   136  ARG136     -0.2867
      5  CB        13.0750  -11.1320   37.4950 C.3   136  ARG136      0.0307
      6  CG        12.6480   -9.9200   36.7020 C.3   136  ARG136      0.0489
      7  CD        13.6130   -8.7890   36.9700 C.3   136  ARG136      0.2205
      8  NE        13.3140   -7.6020   36.1790 N.pl3 136  ARG136     -0.0865
      9  CZ        14.0310   -7.1780   35.1390 C.cat 136  ARG136      0.5346
     10  NH1       15.1150   -7.8450   34.7400 N.pl3 136  ARG136      0.1354
     11  NH2       13.6640   -6.0730   34.4950 N.pl3 136  ARG136      0.1354
     12  N         19.4880  -19.3520   30.7770 N.3   150  TYR150     -0.1241
     13  CA        18.6770  -18.1270   30.8100 C.3   150  TYR150      0.1605
     14  C         17.4320  -18.3110   29.9490 C.2   150  TYR150      0.2264
     15  O         17.5260  -18.6440   28.7800 O.2   150  TYR150     -0.2867
     16  CB        19.4650  -16.9210   30.2840 C.3   150  TYR150      0.0534
     17  CG        18.7870  -15.5980   30.5340 C.ar  150  TYR150     -0.0201
     18  CD1       19.1030  -14.8380   31.6530 C.ar  150  TYR150     -0.0009
     19  CD2       17.8110  -15.1060   29.6600 C.ar  150  TYR150     -0.0009
     20  CE1       18.4700  -13.6230   31.8970 C.ar  150  TYR150      0.0417
     21  CE2       17.1690  -13.8950   29.9020 C.ar  150  TYR150      0.0417
     22  CZ        17.5110  -13.1580   31.0180 C.ar  150  TYR150      0.1957
     23  OH        16.9010  -11.9510   31.2550 O.3   150  TYR150     -0.2866
     24  N         14.3560  -16.1040   28.4940 N.3   152  GLY152     -0.1210
     25  CA        13.8450  -14.7550   28.2900 C.3   152  GLY152      0.1956
     26  C         12.3760  -14.7570   27.9220 C.2   152  GLY152      0.2612
     27  O         11.8560  -15.7610   27.4440 O.2   152  GLY152     -0.2717
     28  N         11.7100  -13.6350   28.1710 N.am  153  GLU153     -0.1965
     29  CA        10.3310  -13.4330   27.7530 C.3   153  GLU153      0.1733
     30  C         10.2160  -11.9840   27.2920 C.2   153  GLU153      0.2616
     31  O          9.9850  -11.0850   28.0980 O.2   153  GLU153     -0.2715
     32  CB         9.3920  -13.7240   28.9210 C.3   153  GLU153      0.0429
     33  CG         7.9170  -13.8050   28.5680 C.3   153  GLU153      0.1163
     34  CD         7.0410  -13.8440   29.8040 C.2   153  GLU153      0.3649
     35  OE1        6.5060  -14.9330   30.1170 O.co2 153  GLU153     -0.2457
     36  OE2        6.9040  -12.7880   30.4740 O.co2 153  GLU153     -0.2457
     37  N         10.4000  -11.7550   25.9960 N.am  154  PHE154     -0.1960
     38  CA        10.4980  -10.3920   25.4760 C.3   154  PHE154      0.1771
     39  C          9.2100   -9.8500   24.8580 C.2   154  PHE154      0.2619
     40  O          8.3880  -10.6060   24.3430 O.2   154  PHE154     -0.2715
     41  CB        11.6640  -10.2740   24.4940 C.3   154  PHE154      0.0574
     42  CG        13.0020  -10.5740   25.1100 C.ar  154  PHE154     -0.0200
     43  CD1       13.6100  -11.8130   24.9130 C.ar  154  PHE154     -0.0042
     44  CD2       13.6470   -9.6280   25.9010 C.ar  154  PHE154     -0.0042
     45  CE1       14.8550  -12.0930   25.4820 C.ar  154  PHE154     -0.0003
     46  CE2       14.8790   -9.9060   26.4800 C.ar  154  PHE154     -0.0003
     47  CZ        15.4870  -11.1390   26.2640 C.ar  154  PHE154     -0.0000
     48  N          9.0550   -8.5270   24.9210 N.am  155  LYS155     -0.1977
     49  CA         7.8740   -7.8380   24.3940 C.3   155  LYS155      0.1596
     50  C          7.9930   -7.5600   22.9030 C.2   155  LYS155      0.2287
     51  O          7.1060   -6.9490   22.3190 O.2   155  LYS155     -0.2864
     52  CB         7.6340   -6.5150   25.1290 C.3   155  LYS155      0.0298
     53  CG         7.0920   -6.6570   26.5420 C.3   155  LYS155      0.0038
     54  CD         6.4200   -5.3500   26.9990 C.3   155  LYS155      0.0206
     55  CE         7.2990   -4.5020   27.9200 C.3   155  LYS155      0.1093
     56  NZ         8.4520   -3.8240   27.2580 N.3   155  LYS155     -0.1314
     57  N         22.8140   -5.6000   24.1860 N.3   179  PHE179     -0.1241
     58  CA        21.6820   -5.1780   23.3700 C.3   179  PHE179      0.1605
     59  C         20.8110   -4.1700   24.1020 C.2   179  PHE179      0.2264
     60  O         20.8300   -4.0840   25.3280 O.2   179  PHE179     -0.2867
     61  CB        20.8560   -6.4040   22.8960 C.3   179  PHE179      0.0534
     62  CG        20.2230   -7.1820   24.0110 C.ar  179  PHE179     -0.0203
     63  CD1       18.8650   -7.0230   24.3050 C.ar  179  PHE179     -0.0042
     64  CD2       20.9810   -8.0700   24.7760 C.ar  179  PHE179     -0.0042
     65  CE1       18.2760   -7.7290   25.3420 C.ar  179  PHE179     -0.0003
     66  CE2       20.4010   -8.7820   25.8140 C.ar  179  PHE179     -0.0003
     67  CZ        19.0480   -8.6130   26.1040 C.ar  179  PHE179     -0.0000
     68  N         16.7120   -2.0570   23.5610 N.3   181  PHE181     -0.1241
     69  CA        15.5020   -1.8180   22.7820 C.3   181  PHE181      0.1605
     70  C         15.3360   -0.3350   22.4840 C.2   181  PHE181      0.2264
     71  O         15.6280    0.5040   23.3330 O.2   181  PHE181     -0.2867
     72  CB        14.2760   -2.3980   23.4960 C.3   181  PHE181      0.0534
     73  CG        14.3680   -3.8850   23.7170 C.ar  181  PHE181     -0.0203
     74  CD1       14.6640   -4.3960   24.9760 C.ar  181  PHE181     -0.0042
     75  CD2       14.2070   -4.7710   22.6540 C.ar  181  PHE181     -0.0042
     76  CE1       14.7730   -5.7750   25.1820 C.ar  181  PHE181     -0.0003
     77  CE2       14.3090   -6.1470   22.8500 C.ar  181  PHE181     -0.0003
     78  CZ        14.5990   -6.6480   24.1160 C.ar  181  PHE181     -0.0000
     79  N         12.8880    1.6570   22.3450 N.3   183  TRP183     -0.1227
     80  CA        12.0550    2.3740   23.3110 C.3   183  TRP183      0.1737
     81  C         12.7160    2.6390   24.6790 C.2   183  TRP183      0.2595
     82  O         12.1730    3.4100   25.4800 O.2   183  TRP183     -0.2718
     83  CB        10.7130    1.6590   23.4970 C.3   183  TRP183      0.0564
     84  CG        10.7810    0.3260   24.2070 C.ar  183  TRP183      0.0003
     85  CD1       10.8250    0.1180   25.5610 C.ar  183  TRP183      0.0946
     86  CD2       10.7680   -0.9790   23.6000 C.ar  183  TRP183      0.0152
     87  NE1       10.8650   -1.2360   25.8310 N.ar  183  TRP183     -0.2442
     88  CE2       10.8230   -1.9290   24.6470 C.ar  183  TRP183      0.0810
     89  CE3       10.7230   -1.4340   22.2750 C.ar  183  TRP183      0.0012
     90  CZ2       10.8370   -3.3100   24.4110 C.ar  183  TRP183      0.0191
     91  CZ3       10.7410   -2.8180   22.0380 C.ar  183  TRP183      0.0001
     92  CH2       10.7940   -3.7340   23.1060 C.ar  183  TRP183      0.0015
     93  N         13.8640    2.0010   24.9470 N.am  184  GLU184     -0.1979
     94  CA        14.6100    2.1410   26.2090 C.3   184  GLU184      0.1602
     95  C         15.6540    3.2480   26.1530 C.2   184  GLU184      0.2287
     96  O         16.1500    3.6930   27.1880 O.2   184  GLU184     -0.2864
     97  CB        15.3710    0.8530   26.5460 C.3   184  GLU184      0.0415
     98  CG        14.5490   -0.3980   26.7490 C.3   184  GLU184      0.1163
     99  CD        15.4180   -1.6150   27.0690 C.2   184  GLU184      0.3649
    100  OE1       14.8900   -2.5380   27.7210 O.co2 184  GLU184     -0.2457
    101  OE2       16.6130   -1.6530   26.6730 O.co2 184  GLU184     -0.2457
    102  N         22.8210  -12.6640   27.8590 N.3   226  LYS226     -0.1245
    103  CA        22.3920  -12.6870   29.2630 C.3   226  LYS226      0.1561
    104  C         23.0630  -13.7940   30.1040 C.2   226  LYS226      0.2260
    105  O         23.3280  -13.6040   31.3060 O.2   226  LYS226     -0.2867
    106  CB        20.8670  -12.7820   29.3570 C.3   226  LYS226      0.0271
    107  CG        20.1420  -11.4820   29.0180 C.3   226  LYS226      0.0035
    108  CD        20.0950  -10.5320   30.2090 C.3   226  LYS226      0.0206
    109  CE        19.3550   -9.2400   29.8450 C.3   226  LYS226      0.1093
    110  NZ        19.0290   -8.4120   31.0520 N.3   226  LYS226     -0.1314
    111  N         14.1700  -14.1650   33.1090 N.3   249  ARG249     -0.1231
    112  CA        14.1400  -12.6980   32.9760 C.3   249  ARG249      0.1694
    113  C         15.0690  -11.9480   33.9440 C.2   249  ARG249      0.2592
    114  O         14.8270  -10.7790   34.2470 O.2   249  ARG249     -0.2718
    115  CB        12.7110  -12.1530   33.1180 C.3   249  ARG249      0.0321
    116  CG        11.6560  -12.8280   32.2560 C.3   249  ARG249      0.0489
    117  CD        10.2670  -12.2870   32.6140 C.3   249  ARG249      0.2205
    118  NE        10.0720  -10.9140   32.1390 N.pl3 249  ARG249     -0.0865
    119  CZ         9.9370   -9.8450   32.9200 C.cat 249  ARG249      0.5346
    120  NH1        9.9550   -9.9610   34.2450 N.pl3 249  ARG249      0.1354
    121  NH2        9.7770   -8.6500   32.3690 N.pl3 249  ARG249      0.1354
    122  N         16.1210  -12.6040   34.4310 N.am  250  GLY250     -0.1957
    123  CA        17.0940  -11.9210   35.2940 C.3   250  GLY250      0.1869
    124  C         17.9110  -10.8230   34.6220 C.2   250  GLY250      0.2309
    125  O         17.9720  -10.7300   33.3950 O.2   250  GLY250     -0.2863
@<TRIPOS>BOND
     1    91    89   ar
     2    91    92   ar
     3    89    86   ar
     4    51    50    2
     5    79    80    1
     6    70    69    1
     7    70    71    2
     8    75    77   ar
     9    75    73   ar
    10    69    72    1
    11    69    68    1
    12    77    78   ar
    13    61    58    1
    14    61    62    1
    15    50    49    1
    16    92    90   ar
    17    80    83    1
    18    80    81    1
    19    58    59    1
    20    58    57    1
    21    72    73    1
    22    83    84    1
    23    86    84   ar
    24    86    88   ar
    25    73    74   ar
    26    62    63   ar
    27    62    64   ar
    28    59    60    2
    29    78    76   ar
    30    84    85   ar
    31    63    65   ar
    32    40    39    2
    33    49    48    1
    34    49    52    1
    35    90    88   ar
    36    41    42    1
    37    41    38    1
    38    88    87   ar
    39    81    93   am
    40    81    82    2
    41    64    66   ar
    42    39    48   am
    43    39    38    1
    44    43    42   ar
    45    43    45   ar
    46    93    94    1
    47    74    76   ar
    48    42    44   ar
    49    52    53    1
    50    65    67   ar
    51    38    37    1
    52    45    47   ar
    53    85    87   ar
    54    66    67   ar
    55    44    46   ar
    56    37    30   am
    57    95    94    1
    58    95    96    2
    59    94    97    1
    60    47    46   ar
    61    53    54    1
    62    97    98    1
    63   101    99   ar
    64    98    99    1
    65    54    55    1
    66    99   100   ar
    67    56    55    1
    68    30    29    1
    69    30    31    2
    70    27    26    2
    71    29    28    1
    72    29    32    1
    73   102   103    1
    74    26    28   am
    75    26    25    1
    76    25    24    1
    77    33    32    1
    78    33    34    1
    79    15    14    2
    80   107   106    1
    81   107   108    1
    82   103   106    1
    83   103   104    1
    84    19    21   ar
    85    19    17   ar
    86    34    35   ar
    87    34    36   ar
    88   109   108    1
    89   109   110    1
    90    21    22   ar
    91    14    13    1
    92   104   105    2
    93    16    17    1
    94    16    13    1
    95    17    18   ar
    96    12    13    1
    97    22    23    1
    98    22    20   ar
    99    18    20   ar
   100   118   117    1
   101   118   119    2
   102   116   117    1
   103   116   115    1
   104   121   119    1
   105   119   120    1
   106   112   111    1
   107   112   115    1
   108   112   113    1
   109   125   124    2
   110   113   114    2
   111   113   122   am
   112   122   123    1
   113    11     9    1
   114   124   123    1
   115    10     9    1
   116     9     8    2
   117     8     7    1
   118     6     7    1
   119     6     5    1
   120     5     2    1
   121     2     1    1
   122     2     3    1
   123     3     4    2
