@<TRIPOS>MOLECULE
tmp/2j66A00.pdb
 136 129 0 0 0
SMALL
GASTEIGER

@<TRIPOS>ATOM
      1  N          0.6000  -19.7690   28.6300 N.3    44  SER44      -0.1217
      2  CA        -0.3950  -18.7220   28.8510 C.3    44  SER44       0.1889
      3  C          0.1300  -17.5300   28.0780 C.2    44  SER44       0.2288
      4  O          1.1290  -16.9220   28.4610 O.2    44  SER44      -0.2866
      5  CB        -0.5080  -18.3650   30.3260 C.3    44  SER44       0.2089
      6  OG        -1.3910  -17.2630   30.5070 O.3    44  SER44      -0.2183
      7  N         -0.8930  -14.4710   27.7780 N.3    46  LYS46      -0.1245
      8  CA        -0.8850  -13.1440   28.3790 C.3    46  LYS46       0.1561
      9  C          0.4270  -12.7910   29.0770 C.2    46  LYS46       0.2260
     10  O          0.7200  -11.6150   29.2870 O.2    46  LYS46      -0.2867
     11  CB        -2.0760  -12.9580   29.3330 C.3    46  LYS46       0.0271
     12  CG        -1.9590  -13.5600   30.7220 C.3    46  LYS46       0.0035
     13  CD        -3.0510  -12.9250   31.5830 C.3    46  LYS46       0.0206
     14  CE        -3.0470  -13.3820   33.0260 C.3    46  LYS46       0.1093
     15  NZ        -3.4060  -14.8110   33.1700 N.3    46  LYS46      -0.1314
     16  N         -3.0210  -21.1050   25.8770 N.3    65  GLU65      -0.1245
     17  CA        -4.2190  -20.6340   26.5530 C.3    65  GLU65       0.1567
     18  C         -4.3480  -19.1460   26.2380 C.2    65  GLU65       0.2260
     19  O         -3.4820  -18.3500   26.6030 O.2    65  GLU65      -0.2867
     20  CB        -4.0800  -20.8790   28.0660 C.3    65  GLU65       0.0388
     21  CG        -5.2220  -20.3630   28.9340 C.3    65  GLU65       0.1160
     22  CD        -4.8710  -19.0720   29.6520 C.2    65  GLU65       0.3649
     23  OE1       -3.6750  -18.8590   29.9530 O.co2  65  GLU65      -0.2457
     24  OE2       -5.7910  -18.2730   29.9360 O.co2  65  GLU65      -0.2457
     25  N         -9.8250  -18.8990   27.6800 N.3    88  SER88      -0.1217
     26  CA       -10.2340  -18.6060   29.0550 C.3    88  SER88       0.1889
     27  C        -10.6830  -17.1480   29.1890 C.2    88  SER88       0.2288
     28  O        -10.4060  -16.3270   28.3100 O.2    88  SER88      -0.2866
     29  CB        -9.0530  -18.8630   29.9970 C.3    88  SER88       0.2089
     30  OG        -9.3760  -18.5270   31.3320 O.3    88  SER88      -0.2183
     31  N        -14.8660  -23.5490   34.0590 N.3   135  ARG135     -0.1245
     32  CA       -13.8950  -23.1150   35.0400 C.3   135  ARG135      0.1563
     33  C        -14.5850  -23.1450   36.3900 C.2   135  ARG135      0.2260
     34  O        -15.6030  -22.4850   36.5900 O.2   135  ARG135     -0.2867
     35  CB       -13.4100  -21.7030   34.7440 C.3   135  ARG135      0.0307
     36  CG       -12.4960  -21.1930   35.8290 C.3   135  ARG135      0.0489
     37  CD       -11.6740  -20.0450   35.3510 C.3   135  ARG135      0.2205
     38  NE       -10.7150  -19.6330   36.3680 N.pl3 135  ARG135     -0.0865
     39  CZ        -9.7300  -18.7810   36.1310 C.cat 135  ARG135      0.5346
     40  NH1       -9.5870  -18.2780   34.9150 N.pl3 135  ARG135      0.1354
     41  NH2       -8.9140  -18.4130   37.1040 N.pl3 135  ARG135      0.1354
     42  N        -11.6070  -26.9060   34.5720 N.3   180  HIS180     -0.1241
     43  CA       -10.4010  -26.1070   34.7210 C.3   180  HIS180      0.1621
     44  C        -10.4060  -25.4150   36.0770 C.2   180  HIS180      0.2264
     45  O        -11.4150  -24.8400   36.4870 O.2   180  HIS180     -0.2867
     46  CB       -10.3620  -25.0560   33.6090 C.3   180  HIS180      0.0745
     47  CG        -9.1590  -24.1660   33.6430 C.ar  180  HIS180      0.0817
     48  ND1       -9.1040  -22.9770   32.9480 N.ar  180  HIS180     -0.2268
     49  CD2       -7.9540  -24.3070   34.2430 C.ar  180  HIS180      0.1154
     50  CE1       -7.9140  -22.4260   33.1150 C.ar  180  HIS180      0.1986
     51  NE2       -7.1980  -23.2130   33.8970 N.ar  180  HIS180     -0.2212
     52  N         -7.8600  -22.7560   38.3000 N.3   182  TYR182     -0.1241
     53  CA        -6.6740  -21.8970   38.3210 C.3   182  TYR182      0.1605
     54  C         -6.8660  -20.9650   39.5090 C.2   182  TYR182      0.2264
     55  O         -7.7900  -20.1490   39.5200 O.2   182  TYR182     -0.2867
     56  CB        -6.5530  -21.0900   37.0270 C.3   182  TYR182      0.0534
     57  CG        -5.3850  -20.1210   37.0220 C.ar  182  TYR182     -0.0201
     58  CD1       -4.0750  -20.5610   36.8190 C.ar  182  TYR182     -0.0009
     59  CD2       -5.5950  -18.7570   37.2250 C.ar  182  TYR182     -0.0009
     60  CE1       -3.0010  -19.6570   36.8200 C.ar  182  TYR182      0.0417
     61  CE2       -4.5370  -17.8540   37.2240 C.ar  182  TYR182      0.0417
     62  CZ        -3.2460  -18.3070   37.0190 C.ar  182  TYR182      0.1957
     63  OH        -2.2210  -17.3900   36.9910 O.3   182  TYR182     -0.2866
     64  N         -1.8490  -16.2670   40.1380 N.3   185  THR185     -0.1203
     65  CA        -0.4670  -16.1890   39.6960 C.3   185  THR185      0.1994
     66  C          0.5410  -16.0310   40.8310 C.2   185  THR185      0.2617
     67  O          0.1770  -15.7630   41.9820 O.2   185  THR185     -0.2717
     68  CB        -0.2990  -15.0150   38.7000 C.3   185  THR185      0.1784
     69  OG1        0.9520  -15.1350   38.0160 O.3   185  THR185     -0.2211
     70  CG2       -0.3350  -13.6770   39.4370 C.3   185  THR185      0.0376
     71  N          1.8110  -16.2160   40.4820 N.am  186  GLN186     -0.1979
     72  CA         2.9360  -16.0840   41.4040 C.3   186  GLN186      0.1601
     73  C          2.7480  -16.8610   42.7020 C.2   186  GLN186      0.2287
     74  O          2.8980  -16.3200   43.8030 O.2   186  GLN186     -0.2864
     75  CB         3.1940  -14.5970   41.6890 C.3   186  GLN186      0.0394
     76  CG         4.4170  -14.3110   42.5590 C.3   186  GLN186      0.0908
     77  CD         5.7250  -14.7910   41.9500 C.2   186  GLN186      0.2608
     78  OE1        5.7480  -15.4200   40.8910 O.2   186  GLN186     -0.2717
     79  NE2        6.8300  -14.4910   42.6260 N.am  186  GLN186     -0.0878
     80  N         -0.0710  -21.5700   37.8910 N.3   223  GLY223     -0.1210
     81  CA         0.3510  -20.3650   38.5780 C.3   223  GLY223      0.1956
     82  C          1.7240  -20.4920   39.2180 C.2   223  GLY223      0.2611
     83  O          2.0040  -19.8080   40.1990 O.2   223  GLY223     -0.2717
     84  N          2.5780  -21.3600   38.6800 N.am  224  PHE224     -0.1976
     85  CA         3.9280  -21.5330   39.2360 C.3   224  PHE224      0.1639
     86  C          4.6340  -20.1840   39.3240 C.2   224  PHE224      0.2290
     87  O          4.8180  -19.5040   38.3140 O.2   224  PHE224     -0.2864
     88  CB         4.8000  -22.4320   38.3500 C.3   224  PHE224      0.0560
     89  CG         4.3760  -23.8780   38.2900 C.ar  224  PHE224     -0.0200
     90  CD1        3.2790  -24.3540   38.9990 C.ar  224  PHE224     -0.0042
     91  CD2        5.0900  -24.7680   37.4860 C.ar  224  PHE224     -0.0042
     92  CE1        2.8950  -25.6940   38.9050 C.ar  224  PHE224     -0.0003
     93  CE2        4.7160  -26.1040   37.3860 C.ar  224  PHE224     -0.0003
     94  CZ         3.6150  -26.5680   38.0970 C.ar  224  PHE224     -0.0000
     95  N         -0.9140  -25.2860   33.0140 N.3   262  GLU262     -0.1231
     96  CA        -0.6850  -24.0280   32.3150 C.3   262  GLU262      0.1699
     97  C          0.4690  -23.2740   32.9470 C.2   262  GLU262      0.2593
     98  O          0.6910  -23.3580   34.1530 O.2   262  GLU262     -0.2718
     99  CB        -1.9320  -23.1450   32.3940 C.3   262  GLU262      0.0402
    100  CG        -3.2150  -23.8080   31.9120 C.3   262  GLU262      0.1161
    101  CD        -4.4390  -22.9750   32.2220 C.2   262  GLU262      0.3649
    102  OE1       -4.5410  -22.4720   33.3650 O.co2 262  GLU262     -0.2457
    103  OE2       -5.3050  -22.8310   31.3310 O.co2 262  GLU262     -0.2457
    104  N          1.2080  -22.5350   32.1300 N.am  263  SER263     -0.1938
    105  CA         2.3000  -21.7370   32.6530 C.3   263  SER263      0.2055
    106  C          2.6410  -20.5830   31.7430 C.2   263  SER263      0.2644
    107  O          2.6940  -20.7270   30.5190 O.2   263  SER263     -0.2714
    108  CB         3.5620  -22.5780   32.8680 C.3   263  SER263      0.2130
    109  OG         4.5920  -21.7700   33.4240 O.3   263  SER263     -0.2179
    110  N          2.8650  -19.4330   32.3630 N.am  264  GLY264     -0.1939
    111  CA         3.2620  -18.2510   31.6320 C.3   264  GLY264      0.2014
    112  C          4.5820  -17.8140   32.2400 C.2   264  GLY264      0.2638
    113  O          5.6490  -17.9750   31.6430 O.2   264  GLY264     -0.2714
    114  N          4.4980  -17.3060   33.4650 N.am  265  ARG265     -0.1977
    115  CA         5.6520  -16.8120   34.2070 C.3   265  ARG265      0.1597
    116  C          6.8160  -17.7900   34.3450 C.2   265  ARG265      0.2287
    117  O          7.9530  -17.4530   34.0280 O.2   265  ARG265     -0.2864
    118  CB         5.2130  -16.3680   35.6090 C.3   265  ARG265      0.0334
    119  CG         6.2560  -15.5330   36.3560 C.3   265  ARG265      0.0492
    120  CD         5.8510  -15.3220   37.8120 C.3   265  ARG265      0.2205
    121  NE         4.5140  -14.7470   37.9480 N.pl3 265  ARG265     -0.0865
    122  CZ         4.2230  -13.4550   37.8300 C.cat 265  ARG265      0.5346
    123  NH1        5.1750  -12.5660   37.5710 N.pl3 265  ARG265      0.1354
    124  NH2        2.9690  -13.0470   37.9760 N.pl3 265  ARG265      0.1354
    125  N          5.1790  -10.8370   31.8040 N.3   348  TYR348     -0.1241
    126  CA         4.4550   -9.6570   32.2660 C.3   348  TYR348      0.1605
    127  C          5.3530   -8.4280   32.1850 C.2   348  TYR348      0.2264
    128  O          5.5000   -7.6660   33.1440 O.2   348  TYR348     -0.2867
    129  CB         3.9430   -9.9070   33.6890 C.3   348  TYR348      0.0534
    130  CG         3.0350  -11.1200   33.7380 C.ar  348  TYR348     -0.0201
    131  CD1        1.7780  -11.0940   33.1340 C.ar  348  TYR348     -0.0009
    132  CD2        3.4640  -12.3200   34.3100 C.ar  348  TYR348     -0.0009
    133  CE1        0.9720  -12.2310   33.0910 C.ar  348  TYR348      0.0417
    134  CE2        2.6640  -13.4700   34.2740 C.ar  348  TYR348      0.0417
    135  CZ         1.4190  -13.4170   33.6620 C.ar  348  TYR348      0.1957
    136  OH         0.6240  -14.5430   33.6150 O.3   348  TYR348     -0.2866
@<TRIPOS>BOND
     1    16    17    1
     2    18    17    1
     3    18    19    2
     4    17    20    1
     5    25    26    1
     6     7     8    1
     7    20    21    1
     8     3     4    2
     9     3     2    1
    10    28    27    2
    11     8     9    1
    12     8    11    1
    13     1     2    1
    14     2     5    1
    15    21    22    1
    16    26    27    1
    17    26    29    1
    18     9    10    2
    19    11    12    1
    20    22    24   ar
    21    22    23   ar
    22    29    30    1
    23     5     6    1
    24   107   106    2
    25    12    13    1
    26   103   101   ar
    27    13    14    1
    28   111   112    1
    29   111   110    1
    30   113   112    2
    31   106   110   am
    32   106   105    1
    33   125   126    1
    34   100   101    1
    35   100    99    1
    36   104   105    1
    37   104    97   am
    38   127   126    1
    39   127   128    2
    40   101   102   ar
    41   112   114   am
    42   126   129    1
    43    96    99    1
    44    96    97    1
    45    96    95    1
    46   105   108    1
    47   108   109    1
    48    97    98    2
    49    48    50   ar
    50    48    47   ar
    51    14    15    1
    52   133   131   ar
    53   133   135   ar
    54    50    51   ar
    55   131   130   ar
    56   114   115    1
    57    46    47    1
    58    46    43    1
    59   136   135    1
    60    47    49   ar
    61   135   134   ar
    62   129   130    1
    63   130   132   ar
    64    51    49   ar
    65   117   116    2
    66    31    32    1
    67   115   116    1
    68   115   118    1
    69   134   132   ar
    70    42    43    1
    71    43    44    1
    72    35    32    1
    73    35    36    1
    74    40    39    1
    75    32    33    1
    76    37    36    1
    77    37    38    1
    78   118   119    1
    79    44    45    2
    80    39    38    2
    81    39    41    1
    82   119   120    1
    83    33    34    2
    84    58    60   ar
    85    58    57   ar
    86    60    62   ar
    87    63    62    1
    88    62    61   ar
    89    57    56    1
    90    57    59   ar
    91    56    53    1
    92    61    59   ar
    93    93    91   ar
    94    93    94   ar
    95    91    89   ar
    96   123   122    1
    97   120   121    1
    98   122   121    2
    99   122   124    1
   100    80    81    1
   101    69    68    1
   102    94    92   ar
   103    89    88    1
   104    89    90   ar
   105    52    53    1
   106    87    86    2
   107    53    54    1
   108    88    85    1
   109    81    82    1
   110    84    82   am
   111    84    85    1
   112    68    70    1
   113    68    65    1
   114    92    90   ar
   115    82    83    2
   116    85    86    1
   117    54    55    2
   118    65    64    1
   119    65    66    1
   120    71    66   am
   121    71    72    1
   122    66    67    2
   123    78    77    2
   124    72    75    1
   125    72    73    1
   126    75    76    1
   127    77    76    1
   128    77    79   am
   129    73    74    2
