@<TRIPOS>MOLECULE
tmp/2j6fA00.pdb
 152 152 0 0 0
SMALL
GASTEIGER

@<TRIPOS>ATOM
      1  N         51.6690   36.0820   29.8940 N.3     6  GLU6       -0.1231
      2  CA        52.4530   36.7880   30.9390 C.3     6  GLU6        0.1699
      3  C         52.4410   38.3220   30.7250 C.2     6  GLU6        0.2592
      4  O         52.6860   39.1120   31.6690 O.2     6  GLU6       -0.2718
      5  CB        53.9220   36.3040   30.9380 C.3     6  GLU6        0.0402
      6  CG        54.1860   34.8600   31.4260 C.3     6  GLU6        0.1161
      7  CD        55.6650   34.6040   31.6970 C.2     6  GLU6        0.3649
      8  OE1       55.9790   33.7940   32.6100 O.co2   6  GLU6       -0.2457
      9  OE2       56.5300   35.2280   31.0110 O.co2   6  GLU6       -0.2457
     10  N         52.2420   38.7310   29.4670 N.am    7  TYR7       -0.1976
     11  CA        52.2700   40.1460   29.0780 C.3     7  TYR7        0.1639
     12  C         51.2040   40.4190   28.0270 C.2     7  TYR7        0.2290
     13  O         50.9930   39.6010   27.1390 O.2     7  TYR7       -0.2864
     14  CB        53.6400   40.4810   28.4690 C.3     7  TYR7        0.0560
     15  CG        54.7870   40.3000   29.4260 C.ar    7  TYR7       -0.0198
     16  CD1       55.4610   39.0910   29.4990 C.ar    7  TYR7       -0.0009
     17  CD2       55.1970   41.3400   30.2540 C.ar    7  TYR7       -0.0009
     18  CE1       56.5220   38.9040   30.3910 C.ar    7  TYR7        0.0417
     19  CE2       56.2560   41.1610   31.1380 C.ar    7  TYR7        0.0417
     20  CZ        56.9060   39.9320   31.1870 C.ar    7  TYR7        0.1957
     21  OH        57.9600   39.7580   32.0720 O.3     7  TYR7       -0.2866
     22  N         49.3650   41.6390   24.7660 N.3     9  TYR9       -0.1241
     23  CA        49.8030   41.8990   23.3890 C.3     9  TYR9        0.1605
     24  C         48.5920   42.2200   22.5560 C.2     9  TYR9        0.2264
     25  O         47.5800   41.5210   22.6600 O.2     9  TYR9       -0.2867
     26  CB        50.4980   40.6740   22.7780 C.3     9  TYR9        0.0534
     27  CG        50.8600   40.9290   21.3180 C.ar    9  TYR9       -0.0201
     28  CD1       50.1500   40.3060   20.2830 C.ar    9  TYR9       -0.0009
     29  CD2       51.9070   41.7750   20.9840 C.ar    9  TYR9       -0.0009
     30  CE1       50.4650   40.5560   18.9490 C.ar    9  TYR9        0.0417
     31  CE2       52.2260   42.0400   19.6700 C.ar    9  TYR9        0.0417
     32  CZ        51.4980   41.4290   18.6510 C.ar    9  TYR9        0.1957
     33  OH        51.7930   41.6750   17.3370 O.3     9  TYR9       -0.2866
     34  N         48.3490   43.2680   15.5870 N.3    12  VAL12      -0.1231
     35  CA        48.5610   44.3210   14.5690 C.3    12  VAL12       0.1692
     36  C         48.2010   43.8810   13.1540 C.2    12  VAL12       0.2592
     37  O         48.3330   44.6590   12.1970 O.2    12  VAL12      -0.2718
     38  CB        50.0060   44.9030   14.5950 C.3    12  VAL12       0.0266
     39  CG1       50.3350   45.4790   15.9740 C.3    12  VAL12       0.0020
     40  CG2       51.0200   43.8350   14.2190 C.3    12  VAL12       0.0020
     41  N         47.7580   42.6340   13.0380 N.am   13  HIS13      -0.1976
     42  CA        47.1770   42.0700   11.8220 C.3    13  HIS13       0.1656
     43  C         46.0540   41.1240   12.2110 C.2    13  HIS13       0.2291
     44  O         46.0280   40.5970   13.3270 O.2    13  HIS13      -0.2864
     45  CB        48.2110   41.2910   11.0220 C.3    13  HIS13       0.0771
     46  CG        49.4090   42.0970   10.6420 C.ar   13  HIS13       0.0820
     47  ND1       49.3930   43.0050    9.6060 N.ar   13  HIS13      -0.2267
     48  CD2       50.6540   42.1400   11.1680 C.ar   13  HIS13       0.1154
     49  CE1       50.5830   43.5660    9.5030 C.ar   13  HIS13       0.1986
     50  NE2       51.3690   43.0550   10.4330 N.ar   13  HIS13      -0.2212
     51  N         45.4960   38.0840   11.4300 N.3    15  ASP15      -0.1225
     52  CA        45.9070   36.7080   11.7440 C.3    15  ASP15       0.1805
     53  C         46.5910   36.5650   13.1070 C.2    15  ASP15       0.2597
     54  O         47.0690   35.4700   13.4450 O.2    15  ASP15      -0.2718
     55  CB        46.8100   36.1230   10.6520 C.3    15  ASP15       0.1424
     56  CG        48.0910   36.9230   10.4360 C.2    15  ASP15       0.3668
     57  OD1       48.7880   36.6510    9.4370 O.co2  15  ASP15      -0.2456
     58  OD2       48.4110   37.8330   11.2210 O.co2  15  ASP15      -0.2456
     59  N         46.6520   37.6550   13.8750 N.am   16  GLU16      -0.1979
     60  CA        47.2440   37.6100   15.2230 C.3    16  GLU16       0.1602
     61  C         46.1630   37.6140   16.2850 C.2    16  GLU16       0.2287
     62  O         45.0260   38.0930   16.0480 O.2    16  GLU16      -0.2864
     63  CB        48.1700   38.8070   15.4520 C.3    16  GLU16       0.0415
     64  CG        49.3430   38.8240   14.4930 C.3    16  GLU16       0.1163
     65  CD        50.2000   40.0720   14.6170 C.2    16  GLU16       0.3649
     66  OE1       49.9930   40.8610   15.5610 O.co2  16  GLU16      -0.2457
     67  OE2       51.1100   40.2320   13.7710 O.co2  16  GLU16      -0.2457
     68  N         58.3110   30.6940   11.6750 N.3    33  GLU33      -0.1231
     69  CA        58.6070   32.0930   11.9050 C.3    33  GLU33       0.1699
     70  C         59.1470   32.3010   13.3240 C.2    33  GLU33       0.2592
     71  O         58.3900   32.2010   14.2880 O.2    33  GLU33      -0.2718
     72  CB        57.3360   32.9000   11.6710 C.3    33  GLU33       0.0402
     73  CG        57.5490   34.3800   11.7430 C.3    33  GLU33       0.1161
     74  CD        56.3530   35.1760   11.2620 C.2    33  GLU33       0.3649
     75  OE1       55.3100   34.5900   10.9000 O.co2  33  GLU33      -0.2457
     76  OE2       56.4680   36.4090   11.2450 O.co2  33  GLU33      -0.2457
     77  N         60.4510   32.5800   13.4590 N.am   34  GLU34      -0.1966
     78  CA        61.0240   32.6950   14.7910 C.3    34  GLU34       0.1733
     79  C         60.3440   33.7550   15.6400 C.2    34  GLU34       0.2617
     80  O         60.0620   34.8830   15.1710 O.2    34  GLU34      -0.2715
     81  CB        62.5290   32.9550   14.7320 C.3    34  GLU34       0.0429
     82  CG        63.3660   31.6930   14.7710 C.3    34  GLU34       0.1163
     83  CD        64.7990   31.9830   15.1750 C.2    34  GLU34       0.3649
     84  OE1       65.6180   31.0440   15.2210 O.co2  34  GLU34      -0.2457
     85  OE2       65.1030   33.1580   15.4570 O.co2  34  GLU34      -0.2457
     86  N         60.0960   33.4020   16.8960 N.am   35  GLY35      -0.1940
     87  CA        59.5010   34.3190   17.8570 C.3    35  GLY35       0.2014
     88  C         57.9860   34.2670   17.9460 C.2    35  GLY35       0.2638
     89  O         57.4030   34.9550   18.7770 O.2    35  GLY35      -0.2714
     90  N         57.3700   33.4580   17.0840 N.am   36  TRP36      -0.1973
     91  CA        55.8930   33.3820   16.9610 C.3    36  TRP36       0.1640
     92  C         55.3440   31.9700   17.1910 C.2    36  TRP36       0.2290
     93  O         56.0210   30.9770   16.8800 O.2    36  TRP36      -0.2864
     94  CB        55.4970   33.9190   15.5770 C.3    36  TRP36       0.0576
     95  CG        55.6740   35.4220   15.5600 C.ar   36  TRP36       0.0006
     96  CD1       56.8390   36.1270   15.2920 C.ar   36  TRP36       0.0946
     97  CD2       54.6860   36.3910   15.8880 C.ar   36  TRP36       0.0152
     98  NE1       56.6090   37.4780   15.4420 N.ar   36  TRP36      -0.2442
     99  CE2       55.2940   37.6670   15.7930 C.ar   36  TRP36       0.0810
    100  CE3       53.3400   36.3060   16.2540 C.ar   36  TRP36       0.0012
    101  CZ2       54.5980   38.8430   16.0410 C.ar   36  TRP36       0.0191
    102  CZ3       52.6410   37.4880   16.4890 C.ar   36  TRP36       0.0001
    103  CH2       53.2770   38.7380   16.3850 C.ar   36  TRP36       0.0015
    104  N         48.0490   33.9040   15.6040 N.3    47  MET47      -0.1245
    105  CA        49.4790   33.9800   15.9010 C.3    47  MET47       0.1570
    106  C         49.7390   34.9260   17.0610 C.2    47  MET47       0.2261
    107  O         49.0450   35.9340   17.2260 O.2    47  MET47      -0.2867
    108  CB        50.2430   34.4780   14.6720 C.3    47  MET47       0.0387
    109  CG        50.1120   33.5600   13.4910 C.3    47  MET47       0.0595
    110  SD        51.0100   34.2450   12.1020 S.3    47  MET47      -0.1393
    111  CE        52.6030   34.4580   12.8810 C.3    47  MET47       0.0692
    112  N         53.1620   36.3440   19.9400 N.3    49  PRO49      -0.2102
    113  CA        54.6230   36.2880   20.1920 C.3    49  PRO49       0.1504
    114  C         55.0480   35.4040   21.3450 C.2    49  PRO49       0.2576
    115  O         54.3950   35.4140   22.4000 O.2    49  PRO49      -0.2718
    116  CB        54.9820   37.7480   20.4860 C.3    49  PRO49       0.0282
    117  CG        53.6630   38.4010   20.9140 C.3    49  PRO49       0.0208
    118  CD        52.5540   37.6520   20.2940 C.3    49  PRO49       0.0893
    119  N         56.1370   34.6700   21.1650 N.am   50  ASP50      -0.1960
    120  CA        56.5100   33.6370   22.1550 C.3    50  ASP50       0.1840
    121  C         57.0760   34.1930   23.4670 C.2    50  ASP50       0.2622
    122  O         57.1770   33.4610   24.4640 O.2    50  ASP50      -0.2715
    123  CB        57.4020   32.5230   21.5650 C.3    50  ASP50       0.1450
    124  CG        58.7650   32.9860   21.1300 C.2    50  ASP50       0.3671
    125  OD1       59.2150   34.0930   21.5070 O.co2  50  ASP50      -0.2456
    126  OD2       59.4140   32.1910   20.4220 O.co2  50  ASP50      -0.2456
    127  N         57.4570   35.4600   23.4570 N.am   51  ASN51      -0.1958
    128  CA        58.1070   36.0610   24.6330 C.3    51  ASN51       0.1819
    129  C         57.1170   36.8290   25.5130 C.2    51  ASN51       0.2621
    130  O         57.5220   37.5450   26.4530 O.2    51  ASN51      -0.2715
    131  CB        59.3280   36.9090   24.2370 C.3    51  ASN51       0.1195
    132  CG        58.9810   38.0510   23.2900 C.2    51  ASN51       0.2630
    133  OD1       58.1460   37.8990   22.4000 O.2    51  ASN51      -0.2716
    134  ND2       59.6610   39.2110   23.4700 N.am   51  ASN51      -0.0877
    135  N         55.8240   36.6770   25.1930 N.am   52  PHE52      -0.1960
    136  CA        54.7450   37.2620   25.9990 C.3    52  PHE52       0.1771
    137  C         54.0300   36.1570   26.7840 C.2    52  PHE52       0.2619
    138  O         53.0800   36.4360   27.5030 O.2    52  PHE52      -0.2715
    139  CB        53.7250   37.9880   25.1070 C.3    52  PHE52       0.0574
    140  CG        54.2040   39.3150   24.5690 C.ar   52  PHE52      -0.0200
    141  CD1       55.3030   39.3670   23.7080 C.ar   52  PHE52      -0.0042
    142  CD2       53.5590   40.5010   24.9130 C.ar   52  PHE52      -0.0042
    143  CE1       55.7470   40.5840   23.1890 C.ar   52  PHE52      -0.0003
    144  CE2       53.9880   41.7160   24.3960 C.ar   52  PHE52      -0.0003
    145  CZ        55.1100   41.7540   23.5400 C.ar   52  PHE52      -0.0000
    146  N         54.5040   34.9130   26.6660 N.am   53  VAL53      -0.1977
    147  CA        53.7790   33.7540   27.1980 C.3    53  VAL53       0.1596
    148  C         54.7720   32.7860   27.7930 C.2    53  VAL53       0.2287
    149  O         56.0120   32.8880   27.5560 O.2    53  VAL53      -0.2864
    150  CB        52.9550   33.0230   26.0870 C.3    53  VAL53       0.0276
    151  CG1       51.8300   33.9440   25.5340 C.3    53  VAL53       0.0022
    152  CG2       53.8480   32.6160   24.9460 C.3    53  VAL53       0.0022
@<TRIPOS>BOND
     1    57    56   ar
     2    49    47   ar
     3    49    50   ar
     4    47    46   ar
     5    50    48   ar
     6    56    55    1
     7    56    58   ar
     8    46    45    1
     9    46    48   ar
    10    55    52    1
    11    75    74   ar
    12    45    42    1
    13    76    74   ar
    14    74    73    1
    15    51    52    1
    16    72    73    1
    17    72    69    1
    18    68    69    1
    19    52    53    1
    20    42    43    1
    21    42    41    1
    22    69    70    1
    23   110   111    1
    24   110   109    1
    25    37    36    2
    26    43    44    2
    27    41    36   am
    28    53    54    2
    29    53    59   am
    30    36    35    1
    31    70    77   am
    32    70    71    2
    33    77    78    1
    34   109   108    1
    35    67    65   ar
    36    59    60    1
    37    40    38    1
    38    64    65    1
    39    64    63    1
    40    35    38    1
    41    35    34    1
    42    38    39    1
    43    65    66   ar
    44   108   105    1
    45    81    82    1
    46    81    78    1
    47    82    83    1
    48    78    79    1
    49    80    79    2
    50    83    84   ar
    51    83    85   ar
    52    60    63    1
    53    60    61    1
    54    96    98   ar
    55    96    95   ar
    56    98    99   ar
    57    95    94    1
    58    95    97   ar
    59    94    91    1
    60   104   105    1
    61    79    86   am
    62    99    97   ar
    63    99   101   ar
    64    97   100   ar
    65   105   106    1
    66   101   103   ar
    67    62    61    2
    68   100   102   ar
    69   103   102   ar
    70    93    92    2
    71    86    87    1
    72    91    90    1
    73    91    92    1
    74   106   107    2
    75    90    88   am
    76    33    32    1
    77    87    88    1
    78    88    89    2
    79    32    30   ar
    80    32    31   ar
    81    30    28   ar
    82    31    29   ar
    83   112   113    1
    84   112   118    1
    85   113   116    1
    86   113   114    1
    87    28    27   ar
    88   118   117    1
    89   126   124   ar
    90   116   117    1
    91    29    27   ar
    92   124   125   ar
    93   124   123    1
    94   119   114   am
    95   119   120    1
    96    27    26    1
    97   114   115    2
    98   123   120    1
    99   120   121    1
   100   133   132    2
   101    24    25    2
   102    24    23    1
   103    26    23    1
   104   143   145   ar
   105   143   141   ar
   106   132   134   am
   107   132   131    1
   108    23    22    1
   109   127   121   am
   110   127   128    1
   111   121   122    2
   112   145   144   ar
   113   141   140   ar
   114   131   128    1
   115   144   142   ar
   116   140   142   ar
   117   140   139    1
   118   128   129    1
   119   152   150    1
   120   139   136    1
   121   135   129   am
   122   135   136    1
   123   129   130    2
   124   151   150    1
   125   136   137    1
   126   150   147    1
   127   146   137   am
   128   146   147    1
   129   137   138    2
   130    13    12    2
   131   147   148    1
   132   149   148    2
   133    12    11    1
   134    14    11    1
   135    14    15    1
   136    11    10    1
   137    15    16   ar
   138    15    17   ar
   139    10     3   am
   140    16    18   ar
   141     1     2    1
   142    17    19   ar
   143    18    20   ar
   144     3     2    1
   145     3     4    2
   146     5     2    1
   147     5     6    1
   148     9     7   ar
   149    19    20   ar
   150    20    21    1
   151     6     7    1
   152     7     8   ar
