@<TRIPOS>MOLECULE
tmp/2j6hB01.pdb
 127 118 0 0 0
SMALL
GASTEIGER

@<TRIPOS>ATOM
      1  N         15.7530   64.5520   68.1540 N.3   300  CYS300     -0.1221
      2  CA        16.9380   63.7630   68.5120 C.3   300  CYS300      0.1808
      3  C         17.1920   63.7390   70.0070 C.2   300  CYS300      0.2602
      4  O         16.6710   64.5640   70.7230 O.2   300  CYS300     -0.2717
      5  CB        18.1810   64.2880   67.8140 C.3   300  CYS300      0.0970
      6  SG        17.9360   64.4980   66.0520 S.3   300  CYS300     -0.0800
      7  N         17.9600   62.7650   70.4740 N.am  301  GLY301     -0.1942
      8  CA        18.4110   62.7260   71.8480 C.3   301  GLY301      0.2014
      9  C         17.3410   62.9840   72.8630 C.2   301  GLY301      0.2640
     10  O         16.2980   62.3400   72.8430 O.2   301  GLY301     -0.2714
     11  N         17.6030   63.9460   73.7500 N.am  302  THR302     -0.1936
     12  CA        16.6680   64.2420   74.8290 C.3   302  THR302      0.2028
     13  C         15.3670   64.7150   74.2430 C.2   302  THR302      0.2642
     14  O         14.2920   64.4020   74.7570 O.2   302  THR302     -0.2714
     15  CB        17.2410   65.3330   75.7420 C.3   302  THR302      0.1808
     16  OG1       18.1830   64.7420   76.6380 O.3   302  THR302     -0.2208
     17  CG2       16.2140   65.8820   76.7140 C.3   302  THR302      0.0379
     18  N         15.4370   65.4760   73.1610 N.am  303  SER303     -0.1949
     19  CA        14.2120   65.9310   72.5430 C.3   303  SER303      0.1924
     20  C         13.3790   64.8030   72.0210 C.2   303  SER303      0.2314
     21  O         12.1700   64.8770   72.0970 O.2   303  SER303     -0.2863
     22  CB        14.5190   66.9390   71.4480 C.3   303  SER303      0.2116
     23  OG        14.6540   68.2160   72.0540 O.3   303  SER303     -0.2180
     24  N         10.6110   68.8710   67.9140 N.3   346  LEU346     -0.1231
     25  CA        11.0660   69.3320   69.1970 C.3   346  LEU346      0.1693
     26  C         12.5630   69.5990   69.1520 C.2   346  LEU346      0.2593
     27  O         13.3160   68.7350   68.6910 O.2   346  LEU346     -0.2718
     28  CB        10.7710   68.2940   70.2650 C.3   346  LEU346      0.0284
     29  CG         9.3200   67.9800   70.5040 C.3   346  LEU346      0.0019
     30  CD1        9.1710   66.6070   71.1150 C.3   346  LEU346      0.0001
     31  CD2        8.6790   69.1080   71.3680 C.3   346  LEU346      0.0001
     32  N         12.9880   70.7790   69.6390 N.am  347  SER347     -0.1938
     33  CA        14.4000   71.1680   69.6420 C.3   347  SER347      0.2055
     34  C         14.7890   72.2560   70.6240 C.2   347  SER347      0.2643
     35  O         14.2420   73.3310   70.5930 O.2   347  SER347     -0.2714
     36  CB        14.8340   71.6300   68.2440 C.3   347  SER347      0.2130
     37  OG        16.1920   72.0980   68.2880 O.3   347  SER347     -0.2179
     38  N         15.7860   72.0040   71.4550 N.am  348  GLN348     -0.1963
     39  CA        16.2240   73.0370   72.4180 C.3   348  GLN348      0.1733
     40  C         16.9460   74.2110   71.7070 C.2   348  GLN348      0.2617
     41  O         16.8310   75.3770   72.1230 O.2   348  GLN348     -0.2715
     42  CB        17.1220   72.4130   73.5070 C.3   348  GLN348      0.0408
     43  CG        17.5560   73.3460   74.6360 C.3   348  GLN348      0.0908
     44  CD        18.5280   74.4380   74.2150 C.2   348  GLN348      0.2608
     45  OE1       18.4640   75.5330   74.7280 O.2   348  GLN348     -0.2717
     46  NE2       19.4430   74.1320   73.2710 N.am  348  GLN348     -0.0878
     47  N         17.7000   73.8930   70.6540 N.am  349  SER349     -0.1950
     48  CA        18.5250   74.8930   69.9840 C.3   349  SER349      0.1924
     49  C         17.8850   75.4170   68.7260 C.2   349  SER349      0.2314
     50  O         18.2820   76.4420   68.1990 O.2   349  SER349     -0.2863
     51  CB        19.9440   74.3500   69.6490 C.3   349  SER349      0.2116
     52  OG        19.9410   73.1550   68.8450 O.3   349  SER349     -0.2180
     53  N         19.5750   71.7840   65.2370 N.3   352  THR352     -0.1218
     54  CA        19.9250   70.4030   64.9460 C.3   352  THR352      0.1862
     55  C         19.6420   69.9960   63.4820 C.2   352  THR352      0.2287
     56  O         18.4860   69.8920   63.0470 O.2   352  THR352     -0.2866
     57  CB        19.1580   69.4980   65.8750 C.3   352  THR352      0.1770
     58  OG1       19.2920   69.9790   67.2190 O.3   352  THR352     -0.2211
     59  CG2       19.7980   68.0840   65.8770 C.3   352  THR352      0.0375
     60  N         17.0830   67.1640   62.6370 N.3   355  THR355     -0.1218
     61  CA        15.7160   67.5930   62.8560 C.3   355  THR355      0.1862
     62  C         15.3000   68.5340   61.7470 C.2   355  THR355      0.2287
     63  O         14.1770   68.4070   61.1930 O.2   355  THR355     -0.2866
     64  CB        15.5290   68.3370   64.1720 C.3   355  THR355      0.1770
     65  OG1       15.9940   67.5410   65.2860 O.3   355  THR355     -0.2211
     66  CG2       14.0260   68.5350   64.3890 C.3   355  THR355      0.0375
     67  N         25.7260   71.3530   78.0660 N.3   399  VAL399     -0.1245
     68  CA        25.4480   70.3940   76.9850 C.3   399  VAL399      0.1561
     69  C         24.2630   69.5110   77.3080 C.2   399  VAL399      0.2260
     70  O         23.4170   69.2850   76.4610 O.2   399  VAL399     -0.2867
     71  CB        26.6710   69.5770   76.6380 C.3   399  VAL399      0.0252
     72  CG1       26.3450   68.5280   75.5980 C.3   399  VAL399      0.0019
     73  CG2       27.7240   70.5250   76.1300 C.3   399  VAL399      0.0019
     74  N         20.8330   68.7980   78.4400 N.3   401  SER401     -0.1217
     75  CA        19.5470   69.4800   78.6550 C.3   401  SER401      0.1889
     76  C         18.7960   69.1190   79.9870 C.2   401  SER401      0.2288
     77  O         18.5240   67.9340   80.2920 O.2   401  SER401     -0.2866
     78  CB        18.6770   69.2090   77.4590 C.3   401  SER401      0.2089
     79  OG        17.3550   69.2850   77.8870 O.3   401  SER401     -0.2183
     80  N         20.4200   58.5330   79.2580 N.3   484  LEU484     -0.1231
     81  CA        21.1310   59.4190   78.3550 C.3   484  LEU484      0.1693
     82  C         21.9270   60.4710   79.1510 C.2   484  LEU484      0.2591
     83  O         23.0630   60.7560   78.8400 O.2   484  LEU484     -0.2718
     84  CB        20.1900   60.0360   77.3110 C.3   484  LEU484      0.0284
     85  CG        20.8770   61.0440   76.3500 C.3   484  LEU484      0.0019
     86  CD1       22.0910   60.4700   75.5880 C.3   484  LEU484      0.0001
     87  CD2       19.8970   61.7320   75.3630 C.3   484  LEU484      0.0001
     88  N         21.3290   60.9910   80.2240 N.am  485  LYS485     -0.1980
     89  CA        21.9870   61.9860   81.0540 C.3   485  LYS485      0.1596
     90  C         23.2640   61.3650   81.6370 C.2   485  LYS485      0.2287
     91  O         24.3120   61.9770   81.5430 O.2   485  LYS485     -0.2864
     92  CB        21.0820   62.4450   82.1950 C.3   485  LYS485      0.0298
     93  CG        20.2910   63.7150   81.9900 C.3   485  LYS485      0.0038
     94  CD        20.8930   64.5820   80.9660 C.3   485  LYS485      0.0206
     95  CE        19.8150   65.3800   80.2880 C.3   485  LYS485      0.1093
     96  NZ        19.6930   65.0170   78.9260 N.3   485  LYS485     -0.1314
     97  N         26.2080   60.7020   79.0610 N.3   488  GLU488     -0.1245
     98  CA        26.7830   61.9310   78.5140 C.3   488  GLU488      0.1567
     99  C         27.7680   62.5940   79.4110 C.2   488  GLU488      0.2260
    100  O         28.7810   63.0580   78.9360 O.2   488  GLU488     -0.2867
    101  CB        25.7150   63.0030   78.3450 C.3   488  GLU488      0.0388
    102  CG        25.0330   62.9340   77.0290 C.3   488  GLU488      0.1160
    103  CD        24.4390   64.2670   76.6960 C.2   488  GLU488      0.3649
    104  OE1       23.7040   64.7920   77.5880 O.co2 488  GLU488     -0.2457
    105  OE2       24.7440   64.7940   75.5750 O.co2 488  GLU488     -0.2457
    106  N         26.9650   71.2540   72.4130 N.3   603  LYS603     -0.1231
    107  CA        25.5800   71.5860   72.8360 C.3   603  LYS603      0.1693
    108  C         24.5400   71.4820   71.7000 C.2   603  LYS603      0.2593
    109  O         23.3730   71.1960   71.9360 O.2   603  LYS603     -0.2718
    110  CB        25.4990   72.9870   73.5060 C.3   603  LYS603      0.0285
    111  CG        24.1000   73.4860   73.8980 C.3   603  LYS603      0.0035
    112  CD        23.5970   72.6960   75.1080 C.3   603  LYS603      0.0206
    113  CE        22.1450   72.9580   75.3990 C.3   603  LYS603      0.1093
    114  NZ        21.7080   71.9270   76.3570 N.3   603  LYS603     -0.1314
    115  N         24.9530   71.6890   70.4660 N.am  604  SER604     -0.1938
    116  CA        24.0320   71.5250   69.3730 C.3   604  SER604      0.2055
    117  C         24.7560   70.9750   68.1390 C.2   604  SER604      0.2642
    118  O         25.6570   71.6280   67.6030 O.2   604  SER604     -0.2714
    119  CB        23.4090   72.8670   69.0340 C.3   604  SER604      0.2130
    120  OG        22.4080   72.7000   68.0680 O.3   604  SER604     -0.2179
    121  N         24.3120   69.7970   67.6840 N.am  605  VAL605     -0.1977
    122  CA        24.9040   69.1070   66.5460 C.3   605  VAL605      0.1596
    123  C         24.2880   69.5870   65.2610 C.2   605  VAL605      0.2287
    124  O         23.2520   69.0890   64.8200 O.2   605  VAL605     -0.2864
    125  CB        24.8060   67.5960   66.6960 C.3   605  VAL605      0.0276
    126  CG1       25.9790   66.8700   65.9250 C.3   605  VAL605      0.0022
    127  CG2       24.8790   67.2070   68.2000 C.3   605  VAL605      0.0022
@<TRIPOS>BOND
     1    63    62    2
     2    62    61    1
     3    60    61    1
     4    61    64    1
     5    56    55    2
     6    55    54    1
     7    64    66    1
     8    64    65    1
     9   124   123    2
    10    54    53    1
    11    54    57    1
    12   123   122    1
    13    57    59    1
    14    57    58    1
    15   126   125    1
    16     6     5    1
    17   122   125    1
    18   122   121    1
    19   125   127    1
    20   118   117    2
    21   121   117   am
    22     5     2    1
    23    24    25    1
    24   120   119    1
    25   117   116    1
    26     1     2    1
    27    50    49    2
    28    36    37    1
    29    36    33    1
    30     2     3    1
    31    27    26    2
    32    49    48    1
    33    52    51    1
    34   119   116    1
    35    26    25    1
    36    26    32   am
    37    25    28    1
    38   116   115    1
    39    32    33    1
    40    33    34    1
    41    51    48    1
    42    48    47    1
    43     3     7   am
    44     3     4    2
    45    28    29    1
    46   115   108   am
    47     7     8    1
    48    29    30    1
    49    29    31    1
    50    35    34    2
    51    34    38   am
    52    47    40   am
    53    22    23    1
    54    22    19    1
    55    38    39    1
    56   108   109    2
    57   108   107    1
    58    40    41    2
    59    40    39    1
    60     8     9    1
    61    20    21    2
    62    20    19    1
    63   106   107    1
    64    39    42    1
    65    19    18    1
    66   107   110    1
    67    10     9    2
    68     9    11   am
    69    18    13   am
    70    46    44   am
    71   110   111    1
    72    42    43    1
    73    11    12    1
    74   111   112    1
    75    44    43    1
    76    44    45    2
    77    13    14    2
    78    13    12    1
    79    12    15    1
    80   112   113    1
    81    87    85    1
    82   113   114    1
    83   105   103   ar
    84    86    85    1
    85    72    71    1
    86    15    16    1
    87    15    17    1
    88    73    71    1
    89    85    84    1
    90    70    69    2
    91    71    68    1
    92   103   102    1
    93   103   104   ar
    94    68    69    1
    95    68    67    1
    96   102   101    1
    97    84    81    1
    98    78    79    1
    99    78    75    1
   100   101    98    1
   101    81    82    1
   102    81    80    1
   103    74    75    1
   104    98    97    1
   105    98    99    1
   106    75    76    1
   107    83    82    2
   108    96    95    1
   109   100    99    2
   110    82    88   am
   111    76    77    2
   112    88    89    1
   113    95    94    1
   114    94    93    1
   115    89    90    1
   116    89    92    1
   117    91    90    2
   118    93    92    1
