@<TRIPOS>MOLECULE
tmp/2j6hB00.pdb
 124 122 0 0 0
SMALL
GASTEIGER

@<TRIPOS>ATOM
      1  N         29.6090   73.0960   63.5910 N.3     1  CYS1       -0.1235
      2  CA        30.6190   74.1840   63.7280 C.3     1  CYS1        0.1677
      3  C         30.0530   75.5760   63.5930 C.2     1  CYS1        0.2270
      4  O         28.9730   75.7660   62.9950 O.2     1  CYS1       -0.2867
      5  CB        31.6650   74.0090   62.6660 C.3     1  CYS1        0.0956
      6  SG        32.5050   72.4270   62.8640 S.3     1  CYS1       -0.0801
      7  N         35.1190   74.4290   66.2710 N.3    73  ARG73      -0.1231
      8  CA        34.8770   73.1140   65.6690 C.3    73  ARG73       0.1694
      9  C         34.1820   72.0590   66.5530 C.2    73  ARG73       0.2592
     10  O         34.4400   71.9290   67.7940 O.2    73  ARG73      -0.2718
     11  CB        36.2090   72.5700   65.1180 C.3    73  ARG73       0.0321
     12  CG        36.2480   71.0550   64.6770 C.3    73  ARG73       0.0489
     13  CD        37.5970   70.6160   63.9810 C.3    73  ARG73       0.2205
     14  NE        37.4470   69.4580   63.0770 N.pl3  73  ARG73      -0.0865
     15  CZ        38.2190   68.3610   63.0850 C.cat  73  ARG73       0.5346
     16  NH1       39.2460   68.2650   63.9260 N.pl3  73  ARG73       0.1354
     17  NH2       38.0000   67.3670   62.2230 N.pl3  73  ARG73       0.1354
     18  N         33.2800   71.3090   65.9070 N.am   74  TRP74      -0.1976
     19  CA        32.8440   70.0530   66.4620 C.3    74  TRP74       0.1640
     20  C         33.3500   69.0540   65.4240 C.2    74  TRP74       0.2290
     21  O         32.8320   69.0310   64.3110 O.2    74  TRP74      -0.2864
     22  CB        31.3390   69.9460   66.6010 C.3    74  TRP74       0.0576
     23  CG        30.9590   68.6330   67.2260 C.ar   74  TRP74       0.0006
     24  CD1       31.1930   68.2460   68.5140 C.ar   74  TRP74       0.0946
     25  CD2       30.3650   67.5080   66.5870 C.ar   74  TRP74       0.0152
     26  NE1       30.7550   66.9570   68.7270 N.ar   74  TRP74      -0.2442
     27  CE2       30.2440   66.4790   67.5530 C.ar   74  TRP74       0.0810
     28  CE3       29.9030   67.2570   65.2930 C.ar   74  TRP74       0.0012
     29  CZ2       29.6650   65.2200   67.2610 C.ar   74  TRP74       0.0191
     30  CZ3       29.3180   65.9940   64.9930 C.ar   74  TRP74       0.0001
     31  CH2       29.2150   64.9950   65.9830 C.ar   74  TRP74       0.0015
     32  N         34.1930   66.1060   63.0110 N.3    76  THR76      -0.1203
     33  CA        33.6280   64.8890   62.4240 C.3    76  THR76       0.1994
     34  C         34.6450   64.0880   61.5770 C.2    76  THR76       0.2617
     35  O         34.5540   62.8660   61.5360 O.2    76  THR76      -0.2717
     36  CB        32.3940   65.1830   61.5330 C.3    76  THR76       0.1784
     37  OG1       32.7790   65.9440   60.3640 O.3    76  THR76      -0.2211
     38  CG2       31.4090   66.0130   62.2630 C.3    76  THR76       0.0376
     39  N         35.5540   64.7770   60.8640 N.am   77  HIS77      -0.1975
     40  CA        36.5420   64.1200   60.0030 C.3    77  HIS77       0.1656
     41  C         37.9400   64.5300   60.4350 C.2    77  HIS77       0.2291
     42  O         38.3980   65.6570   60.1280 O.2    77  HIS77      -0.2864
     43  CB        36.2930   64.4140   58.4980 C.3    77  HIS77       0.0771
     44  CG        34.9900   63.8680   57.9980 C.ar   77  HIS77       0.0820
     45  ND1       33.7690   64.4090   58.3550 N.ar   77  HIS77      -0.2267
     46  CD2       34.7090   62.7730   57.2470 C.ar   77  HIS77       0.1154
     47  CE1       32.7930   63.6710   57.8490 C.ar   77  HIS77       0.1986
     48  NE2       33.3330   62.6740   57.1730 N.ar   77  HIS77      -0.2212
     49  N         40.2390   74.7700   61.3680 N.3    86  HIS86      -0.1241
     50  CA        40.0110   75.8030   60.3470 C.3    86  HIS86       0.1621
     51  C         40.4970   77.1310   60.9870 C.2    86  HIS86       0.2264
     52  O         40.6020   77.2000   62.2200 O.2    86  HIS86      -0.2867
     53  CB        38.5220   75.9500   60.0120 C.3    86  HIS86       0.0745
     54  CG        37.7740   74.6680   59.8340 C.ar   86  HIS86       0.0817
     55  ND1       36.5750   74.6070   59.1410 N.ar   86  HIS86      -0.2268
     56  CD2       38.0320   73.4010   60.2560 C.ar   86  HIS86       0.1154
     57  CE1       36.1170   73.3600   59.1640 C.ar   86  HIS86       0.1986
     58  NE2       36.9780   72.6110   59.8360 N.ar   86  HIS86      -0.2212
     59  N         34.3840   76.2060   57.5280 N.3    97  HIS97      -0.1226
     60  CA        33.2790   75.3880   57.0270 C.3    97  HIS97       0.1752
     61  C         32.4450   74.7670   58.1320 C.2    97  HIS97       0.2596
     62  O         32.9510   74.2530   59.1250 O.2    97  HIS97      -0.2718
     63  CB        33.8590   74.3420   56.0860 C.3    97  HIS97       0.0759
     64  CG        32.9320   73.2200   55.7450 C.ar   97  HIS97       0.0818
     65  ND1       33.3220   71.8940   55.7940 N.ar   97  HIS97      -0.2268
     66  CD2       31.6650   73.2290   55.2640 C.ar   97  HIS97       0.1154
     67  CE1       32.3220   71.1350   55.3820 C.ar   97  HIS97       0.1986
     68  NE2       31.3090   71.9240   55.0480 N.ar   97  HIS97      -0.2212
     69  N         31.1390   74.8570   57.9500 N.am   98  ASN98      -0.1960
     70  CA        30.1460   74.2190   58.8110 C.3    98  ASN98       0.1819
     71  C         29.4020   73.2630   57.8890 C.2    98  ASN98       0.2622
     72  O         28.5930   73.6820   57.0450 O.2    98  ASN98      -0.2715
     73  CB        29.2020   75.2570   59.4160 C.3    98  ASN98       0.1195
     74  CG        28.0880   74.6340   60.3670 C.2    98  ASN98       0.2630
     75  OD1       27.1800   75.3650   60.8030 O.2    98  ASN98      -0.2716
     76  ND2       28.1850   73.3280   60.7110 N.am   98  ASN98      -0.0877
     77  N         29.6990   71.9770   58.0490 N.am   99  GLY99      -0.1940
     78  CA        29.0840   70.9490   57.2200 C.3    99  GLY99       0.2014
     79  C         29.9280   69.6950   57.1070 C.2    99  GLY99       0.2638
     80  O         30.9020   69.5350   57.8160 O.2    99  GLY99      -0.2714
     81  N         29.5360   68.8060   56.1990 N.am  100  ILE100     -0.1977
     82  CA        30.3330   67.6620   55.8650 C.3   100  ILE100      0.1596
     83  C         30.3240   67.5320   54.3580 C.2   100  ILE100      0.2287
     84  O         29.2540   67.5060   53.7560 O.2   100  ILE100     -0.2864
     85  CB        29.7950   66.3410   56.5360 C.3   100  ILE100      0.0276
     86  CG1       30.0460   66.3350   58.0190 C.3   100  ILE100      0.0022
     87  CG2       30.4140   65.0840   55.8370 C.3   100  ILE100      0.0022
     88  CD1       29.2100   65.3760   58.7570 C.3   100  ILE100      0.0001
     89  N         40.7030   66.4000   57.5710 N.3   122  THR122     -0.1203
     90  CA        39.3370   66.9260   57.4200 C.3   122  THR122      0.1994
     91  C         38.8280   66.8570   55.9870 C.2   122  THR122      0.2618
     92  O         39.6090   66.9540   54.9960 O.2   122  THR122     -0.2717
     93  CB        39.2490   68.3970   57.9020 C.3   122  THR122      0.1784
     94  OG1       39.6320   69.2810   56.8250 O.3   122  THR122     -0.2211
     95  CG2       40.2850   68.6620   58.9800 C.3   122  THR122      0.0376
     96  N         37.5080   66.7100   55.8830 N.am  123  ASP123     -0.1959
     97  CA        36.8020   66.8930   54.6050 C.3   123  ASP123      0.1840
     98  C         36.9200   68.3440   54.0770 C.2   123  ASP123      0.2622
     99  O         36.9930   68.5510   52.8540 O.2   123  ASP123     -0.2715
    100  CB        35.3360   66.5040   54.7400 C.3   123  ASP123      0.1450
    101  CG        34.6070   67.2970   55.8460 C.2   123  ASP123      0.3671
    102  OD1       35.1760   67.4620   56.9580 O.co2 123  ASP123     -0.2456
    103  OD2       33.4560   67.7710   55.6590 O.co2 123  ASP123     -0.2456
    104  N         36.9910   69.3130   54.9960 N.am  124  THR124     -0.1951
    105  CA        37.0920   70.7420   54.6950 C.3   124  THR124      0.1897
    106  C         38.2370   71.1000   53.7760 C.2   124  THR124      0.2313
    107  O         38.0980   71.9080   52.8760 O.2   124  THR124     -0.2863
    108  CB        37.1970   71.5380   56.0220 C.3   124  THR124      0.1794
    109  OG1       35.9300   71.4950   56.6840 O.3   124  THR124     -0.2208
    110  CG2       37.4630   73.0350   55.7850 C.3   124  THR124      0.0378
    111  N         24.9790   70.5720   64.6820 N.3   606  THR606     -0.1203
    112  CA        24.6350   71.2500   63.4560 C.3   606  THR606      0.1994
    113  C         25.0100   70.5030   62.1530 C.2   606  THR606      0.2617
    114  O         24.9330   71.0560   61.0560 O.2   606  THR606     -0.2717
    115  CB        25.2770   72.6820   63.4830 C.3   606  THR606      0.1784
    116  OG1       26.7080   72.5890   63.5890 O.3   606  THR606     -0.2211
    117  CG2       24.8390   73.4470   64.7470 C.3   606  THR606      0.0376
    118  N         25.4250   69.2580   62.2610 N.am  607  VAL607     -0.1979
    119  CA        25.7420   68.4790   61.0540 C.3   607  VAL607      0.1595
    120  C         25.0760   67.1340   61.1550 C.2   607  VAL607      0.2287
    121  O         24.5360   66.7960   62.2170 O.2   607  VAL607     -0.2864
    122  CB        27.2790   68.2610   60.8630 C.3   607  VAL607      0.0276
    123  CG1       27.9100   69.5180   60.2490 C.3   607  VAL607      0.0022
    124  CG2       27.9650   67.8120   62.1560 C.3   607  VAL607      0.0022
@<TRIPOS>BOND
     1    99    98    2
     2   107   106    2
     3    84    83    2
     4   106   105    1
     5    98    97    1
     6    98   104   am
     7    83    82    1
     8    97   100    1
     9    97    96    1
    10   105   104    1
    11   105   108    1
    12   100   101    1
    13    92    91    2
    14    68    66   ar
    15    68    67   ar
    16    66    64   ar
    17    67    65   ar
    18   103   101   ar
    19    64    65   ar
    20    64    63    1
    21   110   108    1
    22    87    85    1
    23   101   102   ar
    24    82    81    1
    25    82    85    1
    26    96    91   am
    27    91    90    1
    28   108   109    1
    29    63    60    1
    30    81    79   am
    31    85    86    1
    32    94    93    1
    33    60    59    1
    34    60    61    1
    35    72    71    2
    36    79    78    1
    37    79    80    2
    38    48    46   ar
    39    48    47   ar
    40    78    77    1
    41    46    44   ar
    42    90    89    1
    43    90    93    1
    44    47    45   ar
    45    71    77   am
    46    71    70    1
    47    93    95    1
    48    69    61   am
    49    69    70    1
    50    44    45   ar
    51    44    43    1
    52    86    88    1
    53    61    62    2
    54    43    40    1
    55    70    73    1
    56    55    57   ar
    57    55    54   ar
    58    57    58   ar
    59    73    74    1
    60    54    53    1
    61    54    56   ar
    62    58    56   ar
    63    40    41    1
    64    40    39    1
    65    53    50    1
    66    42    41    2
    67   123   122    1
    68    50    51    1
    69    50    49    1
    70    37    36    1
    71    74    76   am
    72    74    75    2
    73   122   119    1
    74   122   124    1
    75    39    34   am
    76    51    52    2
    77   119   120    1
    78   119   118    1
    79   114   113    2
    80   120   121    2
    81    36    38    1
    82    36    33    1
    83    35    34    2
    84    34    33    1
    85   113   118   am
    86   113   112    1
    87    17    15    1
    88    33    32    1
    89     5     6    1
    90     5     2    1
    91     4     3    2
    92    14    15    2
    93    14    13    1
    94    15    16    1
    95   112   115    1
    96   112   111    1
    97   115   116    1
    98   115   117    1
    99     1     2    1
   100     3     2    1
   101    13    12    1
   102    21    20    2
   103    12    11    1
   104    30    28   ar
   105    30    31   ar
   106    11     8    1
   107    28    25   ar
   108    20    19    1
   109     8     7    1
   110     8     9    1
   111    18    19    1
   112    18     9   am
   113    31    29   ar
   114    19    22    1
   115     9    10    2
   116    25    23   ar
   117    25    27   ar
   118    22    23    1
   119    23    24   ar
   120    29    27   ar
   121    27    26   ar
   122    24    26   ar
