@<TRIPOS>MOLECULE
tmp/2j6iD00.pdb
 82 79 0 0 0
SMALL
GASTEIGER

@<TRIPOS>ATOM
      1  N          6.5880  -16.2290   49.8820 N.3    21  TYR21      -0.1241
      2  CA         6.8600  -15.9500   51.2910 C.3    21  TYR21       0.1605
      3  C          6.2340  -14.6610   51.7850 C.2    21  TYR21       0.2264
      4  O          5.8240  -14.5750   52.9410 O.2    21  TYR21      -0.2867
      5  CB         8.3720  -15.9180   51.5470 C.3    21  TYR21       0.0534
      6  CG         9.0570  -17.2590   51.4240 C.ar   21  TYR21      -0.0201
      7  CD1       10.0530  -17.4600   50.4740 C.ar   21  TYR21      -0.0009
      8  CD2        8.7140  -18.3250   52.2630 C.ar   21  TYR21      -0.0009
      9  CE1       10.6990  -18.6910   50.3510 C.ar   21  TYR21       0.0417
     10  CE2        9.3560  -19.5610   52.1540 C.ar   21  TYR21       0.0417
     11  CZ        10.3470  -19.7330   51.1950 C.ar   21  TYR21       0.1957
     12  OH        10.9880  -20.9470   51.0670 O.3    21  TYR21      -0.2866
     13  N          6.7240  -14.9680   55.6440 N.3    28  LEU28      -0.1231
     14  CA         8.1350  -14.8530   55.2240 C.3    28  LEU28       0.1693
     15  C          8.9760  -16.1120   55.4250 C.2    28  LEU28       0.2593
     16  O         10.2040  -16.0630   55.3020 O.2    28  LEU28      -0.2718
     17  CB         8.8310  -13.6740   55.9140 C.3    28  LEU28       0.0284
     18  CG         8.6570  -12.2660   55.3550 C.3    28  LEU28       0.0019
     19  CD1        9.4530  -11.3010   56.2300 C.3    28  LEU28       0.0001
     20  CD2        9.1160  -12.1900   53.9020 C.3    28  LEU28       0.0001
     21  N          8.3190  -17.2270   55.7410 N.am   29  GLY29      -0.1942
     22  CA         9.0040  -18.4770   56.0450 C.3    29  GLY29       0.2014
     23  C          9.8520  -18.3940   57.3060 C.2    29  GLY29       0.2638
     24  O         10.7960  -19.1730   57.4720 O.2    29  GLY29      -0.2714
     25  N          9.5160  -17.4550   58.1940 N.am   30  ILE30      -0.1977
     26  CA        10.3160  -17.2040   59.4100 C.3    30  ILE30       0.1596
     27  C          9.5850  -17.5140   60.7100 C.2    30  ILE30       0.2287
     28  O         10.1610  -17.3550   61.7860 O.2    30  ILE30      -0.2864
     29  CB        10.8690  -15.7440   59.4860 C.3    30  ILE30       0.0276
     30  CG1        9.7280  -14.7290   59.6890 C.3    30  ILE30       0.0022
     31  CG2       11.7620  -15.4340   58.2760 C.3    30  ILE30       0.0022
     32  CD1       10.1760  -13.3090   59.9620 C.3    30  ILE30       0.0001
     33  N         11.3860  -20.3220   62.6230 N.3    33  TRP33      -0.1241
     34  CA        12.6750  -19.7590   62.9870 C.3    33  TRP33       0.1605
     35  C         12.5120  -18.8280   64.1980 C.2    33  TRP33       0.2264
     36  O         13.2700  -18.9240   65.1740 O.2    33  TRP33      -0.2867
     37  CB        13.2820  -19.0220   61.7930 C.3    33  TRP33       0.0550
     38  CG        14.6360  -18.4630   62.0630 C.ar   33  TRP33       0.0003
     39  CD1       15.8040  -19.1560   62.1570 C.ar   33  TRP33       0.0946
     40  CD2       14.9630  -17.0880   62.2880 C.ar   33  TRP33       0.0152
     41  NE1       16.8500  -18.2940   62.4110 N.ar   33  TRP33      -0.2442
     42  CE2       16.3580  -17.0200   62.5020 C.ar   33  TRP33       0.0810
     43  CE3       14.2150  -15.9030   62.3180 C.ar   33  TRP33       0.0012
     44  CZ2       17.0170  -15.8160   62.7580 C.ar   33  TRP33       0.0191
     45  CZ3       14.8740  -14.7070   62.5730 C.ar   33  TRP33       0.0001
     46  CH2       16.2570  -14.6730   62.7880 C.ar   33  TRP33       0.0015
     47  N         12.7280  -15.1660   48.0960 N.3   320  THR320     -0.1218
     48  CA        13.7400  -15.9320   48.8310 C.3   320  THR320      0.1862
     49  C         14.8460  -15.0090   49.3880 C.2   320  THR320      0.2287
     50  O         15.1970  -15.0680   50.5740 O.2   320  THR320     -0.2866
     51  CB        14.3450  -17.0640   47.9500 C.3   320  THR320      0.1770
     52  OG1       13.3270  -18.0330   47.6590 O.3   320  THR320     -0.2211
     53  CG2       15.5070  -17.7570   48.6520 C.3   320  THR320      0.0375
     54  N         13.4300  -12.9720   52.2870 N.3   323  ALA323     -0.1231
     55  CA        13.2150  -13.7670   53.5070 C.3   323  ALA323      0.1694
     56  C         14.5470  -14.0100   54.2100 C.2   323  ALA323      0.2591
     57  O         14.6700  -13.7890   55.4310 O.2   323  ALA323     -0.2718
     58  CB        12.5240  -15.0740   53.1780 C.3   323  ALA323      0.0304
     59  N         15.5330  -14.4470   53.4310 N.am  324  GLN324     -0.1979
     60  CA        16.8870  -14.6750   53.9250 C.3   324  GLN324      0.1601
     61  C         17.4990  -13.3830   54.4870 C.2   324  GLN324      0.2287
     62  O         18.0300  -13.3840   55.5960 O.2   324  GLN324     -0.2864
     63  CB        17.7810  -15.2950   52.8350 C.3   324  GLN324      0.0394
     64  CG        17.3500  -16.6930   52.3520 C.3   324  GLN324      0.0908
     65  CD        18.0300  -17.1230   51.0460 C.2   324  GLN324      0.2608
     66  OE1       18.0920  -18.3130   50.7320 O.2   324  GLN324     -0.2717
     67  NE2       18.5470  -16.1540   50.2870 N.am  324  GLN324     -0.0878
     68  N         15.9760  -12.4950   57.7690 N.3   327  VAL327     -0.1231
     69  CA        16.6160  -13.3230   58.7980 C.3   327  VAL327      0.1692
     70  C         17.9550  -12.7110   59.2030 C.2   327  VAL327      0.2592
     71  O         18.2140  -12.5470   60.4020 O.2   327  VAL327     -0.2718
     72  CB        16.7750  -14.7940   58.3370 C.3   327  VAL327      0.0266
     73  CG1       17.7320  -15.5640   59.2460 C.3   327  VAL327      0.0020
     74  CG2       15.4220  -15.4710   58.3310 C.3   327  VAL327      0.0020
     75  N         18.7700  -12.3280   58.2160 N.am  328  ASN328     -0.1974
     76  CA        20.1070  -11.7760   58.4880 C.3   328  ASN328      0.1688
     77  C         20.0640  -10.5090   59.3320 C.2   328  ASN328      0.2292
     78  O         20.8300  -10.3630   60.2900 O.2   328  ASN328     -0.2864
     79  CB        20.8880  -11.5180   57.1970 C.3   328  ASN328      0.1181
     80  CG        21.3180  -12.8120   56.5020 C.2   328  ASN328      0.2629
     81  OD1       21.4270  -13.8700   57.1360 O.2   328  ASN328     -0.2716
     82  ND2       21.5630  -12.7300   55.1930 N.am  328  ASN328     -0.0877
@<TRIPOS>BOND
     1    52    51    1
     2    51    53    1
     3    51    48    1
     4    47    48    1
     5    48    49    1
     6    49    50    2
     7     1     2    1
     8    67    65   am
     9     9     7   ar
    10     9    11   ar
    11     7     6   ar
    12    66    65    2
    13    65    64    1
    14    12    11    1
    15    11    10   ar
    16     2     5    1
    17     2     3    1
    18     6     5    1
    19     6     8   ar
    20     3     4    2
    21    10     8   ar
    22    54    55    1
    23    64    63    1
    24    63    60    1
    25    58    55    1
    26    59    60    1
    27    59    56   am
    28    55    56    1
    29    20    18    1
    30    60    61    1
    31    56    57    2
    32    61    62    2
    33    82    80   am
    34    14    15    1
    35    14    13    1
    36    14    17    1
    37    16    15    2
    38    18    17    1
    39    18    19    1
    40    15    21   am
    41    21    22    1
    42    22    23    1
    43    80    81    2
    44    80    79    1
    45    79    76    1
    46    23    24    2
    47    23    25   am
    48    68    69    1
    49    25    26    1
    50    75    76    1
    51    75    70   am
    52    31    29    1
    53    74    72    1
    54    72    69    1
    55    72    73    1
    56    76    77    1
    57    69    70    1
    58    70    71    2
    59    77    78    2
    60    26    29    1
    61    26    27    1
    62    29    30    1
    63    30    32    1
    64    27    28    2
    65    37    38    1
    66    37    34    1
    67    38    39   ar
    68    38    40   ar
    69    39    41   ar
    70    40    43   ar
    71    40    42   ar
    72    43    45   ar
    73    41    42   ar
    74    42    44   ar
    75    45    46   ar
    76    33    34    1
    77    44    46   ar
    78    34    35    1
    79    35    36    2
