@<TRIPOS>MOLECULE
tmp/2j6mA00.pdb
 193 184 0 0 0
SMALL
GASTEIGER

@<TRIPOS>ATOM
      1  N        -45.4370    3.1490  -18.6830 N.3    22  LEU22      -0.1245
      2  CA       -46.2590    2.1590  -18.0210 C.3    22  LEU22       0.1561
      3  C        -45.7400    0.8120  -18.4580 C.2    22  LEU22       0.2260
      4  O        -45.8540   -0.1880  -17.7390 O.2    22  LEU22      -0.2867
      5  CB       -47.7080    2.3100  -18.4600 C.3    22  LEU22       0.0270
      6  CG       -48.3440    3.6440  -18.1050 C.3    22  LEU22       0.0019
      7  CD1      -49.6860    3.7830  -18.8110 C.3    22  LEU22       0.0001
      8  CD2      -48.4940    3.7280  -16.5900 C.3    22  LEU22       0.0001
      9  N        -40.5970   -4.5960  -27.3070 N.3    27  PHE27      -0.1241
     10  CA       -41.1460   -4.2090  -28.5980 C.3    27  PHE27       0.1605
     11  C        -41.4240   -2.6950  -28.6870 C.2    27  PHE27       0.2264
     12  O        -41.3940   -2.1140  -29.7770 O.2    27  PHE27      -0.2867
     13  CB       -42.4110   -5.0430  -28.9100 C.3    27  PHE27       0.0534
     14  CG       -43.4950   -4.9720  -27.8470 C.ar   27  PHE27      -0.0203
     15  CD1      -44.4340   -3.9360  -27.8460 C.ar   27  PHE27      -0.0042
     16  CD2      -43.6020   -5.9680  -26.8740 C.ar   27  PHE27      -0.0042
     17  CE1      -45.4590   -3.8900  -26.8910 C.ar   27  PHE27      -0.0003
     18  CE2      -44.6240   -5.9300  -25.9150 C.ar   27  PHE27      -0.0003
     19  CZ       -45.5560   -4.8900  -25.9290 C.ar   27  PHE27      -0.0000
     20  N        -44.8290    2.2180  -23.7280 N.3    30  VAL30      -0.1245
     21  CA       -46.2310    2.6260  -23.7180 C.3    30  VAL30       0.1561
     22  C        -46.3350    3.6590  -22.6100 C.2    30  VAL30       0.2260
     23  O        -45.8670    3.4190  -21.4960 O.2    30  VAL30      -0.2867
     24  CB       -47.1670    1.4580  -23.3980 C.3    30  VAL30       0.0252
     25  CG1      -48.5960    1.9200  -23.5100 C.3    30  VAL30       0.0019
     26  CG2      -46.9000    0.2940  -24.3440 C.3    30  VAL30       0.0019
     27  N        -53.3270    6.4040  -23.4900 N.3    47  ALA47      -0.1245
     28  CA       -52.1560    5.5490  -23.4960 C.3    47  ALA47       0.1562
     29  C        -51.5580    5.8610  -24.8630 C.2    47  ALA47       0.2260
     30  O        -52.2920    6.0470  -25.8420 O.2    47  ALA47      -0.2867
     31  CB       -52.5420    4.0990  -23.4020 C.3    47  ALA47       0.0290
     32  N        -48.5160    4.6060  -27.5720 N.3    49  LYS49      -0.1245
     33  CA       -47.5510    3.5770  -27.9170 C.3    49  LYS49       0.1561
     34  C        -46.8140    3.8170  -29.2330 C.2    49  LYS49       0.2260
     35  O        -47.4380    3.8480  -30.3010 O.2    49  LYS49      -0.2867
     36  CB       -48.2760    2.2290  -27.9560 C.3    49  LYS49       0.0271
     37  CG       -47.5230    1.0770  -28.6050 C.3    49  LYS49       0.0035
     38  CD       -48.4560   -0.1220  -28.7350 C.3    49  LYS49       0.0206
     39  CE       -47.8260   -1.2470  -29.5230 C.3    49  LYS49       0.1093
     40  NZ       -48.7960   -2.3500  -29.7890 N.3    49  LYS49      -0.1314
     41  N        -52.2080   -2.3500  -36.8140 N.3    66  GLU66      -0.1245
     42  CA       -52.9070   -2.3170  -35.5420 C.3    66  GLU66       0.1567
     43  C        -53.7770   -1.0790  -35.5460 C.2    66  GLU66       0.2260
     44  O        -54.9640   -1.1270  -35.2240 O.2    66  GLU66      -0.2867
     45  CB       -51.8950   -2.2480  -34.4010 C.3    66  GLU66       0.0388
     46  CG       -52.5050   -2.2430  -33.0150 C.3    66  GLU66       0.1160
     47  CD       -51.4620   -2.4490  -31.9350 C.2    66  GLU66       0.3649
     48  OE1      -50.4110   -3.0540  -32.2430 O.co2  66  GLU66      -0.2457
     49  OE2      -51.6960   -2.0250  -30.7810 O.co2  66  GLU66      -0.2457
     50  N        -57.6720   -1.2210  -35.0460 N.3    70  MET70      -0.1245
     51  CA       -58.1240   -0.5280  -33.8510 C.3    70  MET70       0.1570
     52  C        -58.9460    0.7280  -34.1100 C.2    70  MET70       0.2261
     53  O        -59.6490    1.2330  -33.2280 O.2    70  MET70      -0.2867
     54  CB       -56.9260   -0.1900  -32.9850 C.3    70  MET70       0.0387
     55  CG       -57.2980   -0.0990  -31.5410 C.3    70  MET70       0.0595
     56  SD       -55.8910    0.1650  -30.5010 S.3    70  MET70      -0.1393
     57  CE       -55.1040   -1.4640  -30.6590 C.3    70  MET70       0.0692
     58  N        -61.1250   -1.9910  -27.1920 N.3    79  CYS79      -0.1235
     59  CA       -60.4190   -0.7160  -27.1340 C.3    79  CYS79       0.1677
     60  C        -60.2880   -0.1060  -28.5260 C.2    79  CYS79       0.2270
     61  O        -59.7210   -0.7190  -29.4300 O.2    79  CYS79      -0.2867
     62  CB       -59.0390   -0.9190  -26.5200 C.3    79  CYS79       0.0956
     63  SG       -59.1280   -1.3510  -24.7850 S.3    79  CYS79      -0.0801
     64  N        -49.4510    5.2960  -31.5490 N.3    92  LEU92      -0.1245
     65  CA       -50.8470    4.8990  -31.4890 C.3    92  LEU92       0.1561
     66  C        -51.3380    5.5720  -30.2230 C.2    92  LEU92       0.2260
     67  O        -50.6620    5.5130  -29.1970 O.2    92  LEU92      -0.2867
     68  CB       -50.9670    3.3800  -31.3640 C.3    92  LEU92       0.0270
     69  CG       -50.9540    2.5680  -32.6680 C.3    92  LEU92       0.0019
     70  CD1      -50.4190    1.1720  -32.4030 C.3    92  LEU92       0.0001
     71  CD2      -52.3600    2.5040  -33.2440 C.3    92  LEU92       0.0001
     72  N        -54.6650    5.8540  -27.6810 N.3    94  THR94      -0.1203
     73  CA       -55.9760    5.3410  -27.3410 C.3    94  THR94       0.1994
     74  C        -56.3940    5.7080  -25.9230 C.2    94  THR94       0.2618
     75  O        -55.5730    6.1710  -25.1340 O.2    94  THR94      -0.2717
     76  CB       -55.9910    3.8290  -27.4870 C.3    94  THR94       0.1784
     77  OG1      -57.3260    3.3390  -27.3160 O.3    94  THR94      -0.2211
     78  CG2      -55.0880    3.2150  -26.4570 C.3    94  THR94       0.0376
     79  N        -57.6740    5.5120  -25.6130 N.am   95  GLN95      -0.1965
     80  CA       -58.1970    5.8050  -24.2860 C.3    95  GLN95       0.1733
     81  C        -57.3990    5.0700  -23.2100 C.2    95  GLN95       0.2616
     82  O        -56.9590    3.9380  -23.4160 O.2    95  GLN95      -0.2715
     83  CB       -59.6580    5.3700  -24.1970 C.3    95  GLN95       0.0408
     84  CG       -60.2510    5.4390  -22.7880 C.3    95  GLN95       0.0908
     85  CD       -61.5570    4.6680  -22.6620 C.2    95  GLN95       0.2608
     86  OE1      -61.8000    3.7080  -23.4050 O.2    95  GLN95      -0.2717
     87  NE2      -62.4030    5.0810  -21.7140 N.am   95  GLN95      -0.0878
     88  N        -57.2260    5.7070  -22.0540 N.am   96  LEU96      -0.1963
     89  CA       -56.4810    5.0940  -20.9500 C.3    96  LEU96       0.1728
     90  C        -57.3240    4.1020  -20.1370 C.2    96  LEU96       0.2616
     91  O        -58.4710    4.3940  -19.7470 O.2    96  LEU96      -0.2715
     92  CB       -55.9330    6.1760  -19.9990 C.3    96  LEU96       0.0311
     93  CG       -55.0760    5.6700  -18.8310 C.3    96  LEU96       0.0022
     94  CD1      -53.7950    5.1070  -19.3700 C.3    96  LEU96       0.0001
     95  CD2      -54.7450    6.7710  -17.8790 C.3    96  LEU96       0.0001
     96  N        -56.7530    2.9230  -19.9100 N.am   97  MET97      -0.1964
     97  CA       -57.3900    1.8870  -19.0990 C.3    97  MET97       0.1722
     98  C        -56.5090    1.9410  -17.8500 C.2    97  MET97       0.2458
     99  O        -55.5860    1.1400  -17.6790 O.2    97  MET97      -0.2730
    100  CB       -57.2900    0.5250  -19.7990 C.3    97  MET97       0.0427
    101  CG       -57.9270    0.5010  -21.1740 C.3    97  MET97       0.0599
    102  SD       -59.6090    1.1440  -21.0710 S.3    97  MET97      -0.1393
    103  CE       -60.5020   -0.3960  -20.7650 C.3    97  MET97       0.0692
    104  N        -56.8010    2.8920  -16.9510 N.am   98  PRO98      -0.2716
    105  CA       -56.0780    3.1420  -15.7020 C.3    98  PRO98       0.1536
    106  C        -55.5420    1.9380  -14.9460 C.2    98  PRO98       0.2599
    107  O        -54.3600    1.8880  -14.6220 O.2    98  PRO98      -0.2715
    108  CB       -57.0840    3.9220  -14.8630 C.3    98  PRO98       0.0310
    109  CG       -58.0070    4.5030  -15.8450 C.3    98  PRO98       0.0237
    110  CD       -58.1760    3.4060  -16.8410 C.3    98  PRO98       0.0939
    111  N        -56.4080    0.9700  -14.6690 N.am   99  PHE99      -0.1960
    112  CA       -56.0180   -0.1980  -13.8950 C.3    99  PHE99       0.1771
    113  C        -55.1480   -1.2510  -14.5600 C.2    99  PHE99       0.2620
    114  O        -54.8820   -2.3030  -13.9770 O.2    99  PHE99      -0.2715
    115  CB       -57.2630   -0.8470  -13.3140 C.3    99  PHE99       0.0574
    116  CG       -58.0810    0.0850  -12.4710 C.ar   99  PHE99      -0.0200
    117  CD1      -59.1050    0.8430  -13.0310 C.ar   99  PHE99      -0.0042
    118  CD2      -57.8250    0.2110  -11.1090 C.ar   99  PHE99      -0.0042
    119  CE1      -59.8660    1.7140  -12.2400 C.ar   99  PHE99      -0.0003
    120  CE2      -58.5790    1.0790  -10.3130 C.ar   99  PHE99      -0.0003
    121  CZ       -59.6000    1.8300  -10.8790 C.ar   99  PHE99      -0.0000
    122  N        -54.6880   -0.9750  -15.7690 N.am  100  GLY100     -0.1940
    123  CA       -53.8400   -1.9390  -16.4390 C.3   100  GLY100      0.2014
    124  C        -54.5920   -3.1450  -16.9780 C.2   100  GLY100      0.2639
    125  O        -55.8230   -3.1130  -17.1050 O.2   100  GLY100     -0.2714
    126  N        -53.8550   -4.2110  -17.2890 N.am  101  CYS101     -0.1967
    127  CA       -54.4580   -5.4150  -17.8340 C.3   101  CYS101      0.1712
    128  C        -55.0400   -6.3230  -16.7570 C.2   101  CYS101      0.2296
    129  O        -54.5840   -6.3360  -15.6110 O.2   101  CYS101     -0.2864
    130  CB       -53.4420   -6.1900  -18.6760 C.3   101  CYS101      0.0983
    131  SG       -52.4760   -7.3880  -17.7690 S.3   101  CYS101     -0.0798
    132  N        -52.5730   -9.0110  -14.5940 N.3   104  ASP104     -0.1225
    133  CA       -51.8960   -8.4330  -13.4500 C.3   104  ASP104      0.1805
    134  C        -52.8860   -8.1250  -12.3500 C.2   104  ASP104      0.2597
    135  O        -52.6250   -8.3690  -11.1740 O.2   104  ASP104     -0.2718
    136  CB       -51.1870   -7.1460  -13.8460 C.3   104  ASP104      0.1424
    137  CG       -50.1060   -7.3740  -14.8750 C.2   104  ASP104      0.3668
    138  OD1      -49.4910   -6.3710  -15.2990 O.co2 104  ASP104     -0.2456
    139  OD2      -49.8690   -8.5450  -15.2550 O.co2 104  ASP104     -0.2456
    140  N        -54.0320   -7.5950  -12.7480 N.am  105  TYR105     -0.1976
    141  CA       -55.0540   -7.2040  -11.7930 C.3   105  TYR105      0.1639
    142  C        -55.5750   -8.3020  -10.8900 C.2   105  TYR105      0.2290
    143  O        -55.8140   -8.0660   -9.7030 O.2   105  TYR105     -0.2864
    144  CB       -56.2240   -6.5630  -12.5180 C.3   105  TYR105      0.0560
    145  CG       -57.1820   -5.8760  -11.5830 C.ar  105  TYR105     -0.0198
    146  CD1      -58.4180   -6.4280  -11.2930 C.ar  105  TYR105     -0.0009
    147  CD2      -56.8580   -4.6580  -11.0070 C.ar  105  TYR105     -0.0009
    148  CE1      -59.3140   -5.7840  -10.4580 C.ar  105  TYR105      0.0417
    149  CE2      -57.7440   -4.0030  -10.1690 C.ar  105  TYR105      0.0417
    150  CZ       -58.9730   -4.5710   -9.9010 C.ar  105  TYR105      0.1957
    151  OH       -59.8620   -3.9100   -9.0850 O.3   105  TYR105     -0.2866
    152  N        -52.7920   -9.2500   -8.4850 N.3   108  GLU108     -0.1231
    153  CA       -52.6480   -8.2630   -7.4480 C.3   108  GLU108      0.1699
    154  C        -53.8160   -8.2070   -6.4870 C.2   108  GLU108      0.2592
    155  O        -53.6860   -7.6530   -5.3960 O.2   108  GLU108     -0.2718
    156  CB       -52.4280   -6.8920   -8.0770 C.3   108  GLU108      0.0402
    157  CG       -51.6270   -5.9510   -7.2010 C.3   108  GLU108      0.1161
    158  CD       -51.2930   -4.7060   -7.9350 C.2   108  GLU108      0.3649
    159  OE1      -50.8190   -4.8930   -9.0710 O.co2 108  GLU108     -0.2457
    160  OE2      -51.4990   -3.5820   -7.4070 O.co2 108  GLU108     -0.2457
    161  N        -54.9500   -8.7910   -6.8550 N.am  109  HIS109     -0.1976
    162  CA       -56.0990   -8.7090   -5.9580 C.3   109  HIS109      0.1656
    163  C        -56.8830   -9.9880   -5.6300 C.2   109  HIS109      0.2291
    164  O        -58.0670   -9.8990   -5.2930 O.2   109  HIS109     -0.2864
    165  CB       -57.0930   -7.6580   -6.4840 C.3   109  HIS109      0.0771
    166  CG       -56.5050   -6.2910   -6.6800 C.ar  109  HIS109      0.0820
    167  ND1      -55.6910   -5.9740   -7.7480 N.ar  109  HIS109     -0.2267
    168  CD2      -56.6500   -5.1460   -5.9690 C.ar  109  HIS109      0.1154
    169  CE1      -55.3670   -4.6940   -7.6890 C.ar  109  HIS109      0.1986
    170  NE2      -55.9370   -4.1680   -6.6200 N.ar  109  HIS109     -0.2212
    171  N        -58.0400   -5.1790  -20.9220 N.3   148  LEU148     -0.1245
    172  CA       -57.6740   -4.1070  -20.0200 C.3   148  LEU148      0.1561
    173  C        -58.8130   -3.6630  -19.1400 C.2   148  LEU148      0.2260
    174  O        -59.9810   -3.6800  -19.5350 O.2   148  LEU148     -0.2867
    175  CB       -57.1040   -2.9220  -20.8080 C.3   148  LEU148      0.0270
    176  CG       -55.9510   -3.3060  -21.7560 C.3   148  LEU148      0.0019
    177  CD1      -55.6260   -2.1190  -22.6570 C.3   148  LEU148      0.0001
    178  CD2      -54.7180   -3.7740  -20.9610 C.3   148  LEU148      0.0001
    179  N        -58.0530   -5.5780  -25.9790 N.3   158  THR158     -0.1203
    180  CA       -57.1160   -4.7390  -26.7130 C.3   158  THR158      0.1994
    181  C        -56.0630   -5.5780  -27.4320 C.2   158  THR158      0.2617
    182  O        -56.1640   -6.7980  -27.5100 O.2   158  THR158     -0.2717
    183  CB       -56.4130   -3.7250  -25.7720 C.3   158  THR158      0.1784
    184  OG1      -55.9180   -2.6220  -26.5420 O.3   158  THR158     -0.2211
    185  CG2      -55.2470   -4.3750  -25.0450 C.3   158  THR158      0.0376
    186  N        -55.0660   -4.9000  -27.9780 N.am  159  ASP159     -0.1973
    187  CA       -53.9580   -5.5340  -28.6850 C.3   159  ASP159      0.1709
    188  C        -54.3190   -6.2850  -29.9630 C.2   159  ASP159      0.2293
    189  O        -54.5240   -7.4970  -29.9460 O.2   159  ASP159     -0.2864
    190  CB       -53.1910   -6.4450  -27.7300 C.3   159  ASP159      0.1436
    191  CG       -51.6950   -6.3980  -27.9760 C.2   159  ASP159      0.3671
    192  OD1      -51.2400   -6.9940  -28.9820 O.co2 159  ASP159     -0.2456
    193  OD2      -50.9800   -5.7460  -27.1730 O.co2 159  ASP159     -0.2456
@<TRIPOS>BOND
     1    41    42    1
     2    43    42    1
     3    43    44    2
     4    42    45    1
     5    50    51    1
     6    45    46    1
     7    52    51    1
     8    52    53    2
     9    51    54    1
    10    71    69    1
    11    46    47    1
    12    54    55    1
    13    69    70    1
    14    69    68    1
    15    48    47   ar
    16    47    49   ar
    17    64    65    1
    18    55    56    1
    19    65    68    1
    20    65    66    1
    21    57    56    1
    22    35    34    2
    23    66    67    2
    24   188   189    2
    25   188   187    1
    26    40    39    1
    27    12    11    2
    28    39    38    1
    29    61    60    2
    30    34    33    1
    31   192   191   ar
    32    13    10    1
    33    13    14    1
    34    38    37    1
    35    11    10    1
    36   187   186    1
    37   187   190    1
    38    37    36    1
    39    10     9    1
    40    60    59    1
    41   186   181   am
    42   191   190    1
    43   191   193   ar
    44    36    33    1
    45    33    32    1
    46    14    15   ar
    47    14    16   ar
    48    15    17   ar
    49    72    73    1
    50   182   181    2
    51    76    73    1
    52    76    77    1
    53    76    78    1
    54   181   180    1
    55    73    74    1
    56    58    59    1
    57    59    62    1
    58    17    19   ar
    59    16    18   ar
    60   180   179    1
    61   180   183    1
    62   184   183    1
    63    62    63    1
    64    19    18   ar
    65    74    79   am
    66    74    75    2
    67    30    29    2
    68   183   185    1
    69    79    80    1
    70    29    28    1
    71    26    24    1
    72    80    83    1
    73    80    81    1
    74    83    84    1
    75    20    21    1
    76    21    24    1
    77    21    22    1
    78    25    24    1
    79    28    27    1
    80    28    31    1
    81    82    81    2
    82    86    85    2
    83    81    88   am
    84    84    85    1
    85    85    87   am
    86   177   176    1
    87    22    23    2
    88    88    89    1
    89   176   178    1
    90   176   175    1
    91   101   102    1
    92   101   100    1
    93   102   103    1
    94    89    90    1
    95    89    92    1
    96   171   172    1
    97   175   172    1
    98    90    96   am
    99    90    91    2
   100   172   173    1
   101    92    93    1
   102    96    97    1
   103   100    97    1
   104   174   173    2
   105    94    93    1
   106    97    98    1
   107    93    95    1
   108     7     6    1
   109     1     2    1
   110   130   127    1
   111   130   131    1
   112     5     6    1
   113     5     2    1
   114     3     2    1
   115     3     4    2
   116     6     8    1
   117    98    99    2
   118    98   104   am
   119   127   126    1
   120   127   128    1
   121   126   124   am
   122   125   124    2
   123   124   123    1
   124   104   110    1
   125   104   105    1
   126   110   109    1
   127   128   129    2
   128   123   122    1
   129   109   108    1
   130   122   113   am
   131   105   106    1
   132   105   108    1
   133   138   137   ar
   134   139   137   ar
   135   106   111   am
   136   106   107    2
   137   137   136    1
   138   111   112    1
   139   132   133    1
   140   113   114    2
   141   113   112    1
   142   112   115    1
   143   136   133    1
   144   133   134    1
   145   115   116    1
   146   117   116   ar
   147   117   119   ar
   148   140   134   am
   149   140   141    1
   150   144   141    1
   151   144   145    1
   152   116   118   ar
   153   134   135    2
   154   119   121   ar
   155   141   142    1
   156   145   146   ar
   157   145   147   ar
   158   146   148   ar
   159   118   120   ar
   160   147   149   ar
   161   142   143    2
   162   121   120   ar
   163   148   150   ar
   164   149   150   ar
   165   150   151    1
   166   159   158   ar
   167   152   153    1
   168   156   153    1
   169   156   157    1
   170   158   160   ar
   171   158   157    1
   172   167   169   ar
   173   167   166   ar
   174   169   170   ar
   175   153   154    1
   176   161   154   am
   177   161   162    1
   178   166   165    1
   179   166   168   ar
   180   170   168   ar
   181   154   155    2
   182   165   162    1
   183   162   163    1
   184   163   164    2
