@<TRIPOS>MOLECULE
tmp/2j6oA00.pdb
 136 136 0 0 0
SMALL
GASTEIGER

@<TRIPOS>ATOM
      1  N         52.2100   27.6710    4.4790 N.3     7  TYR7       -0.1241
      2  CA        52.2220   26.2630    4.8760 C.3     7  TYR7        0.1605
      3  C         51.1670   26.0380    5.9300 C.2     7  TYR7        0.2264
      4  O         51.0400   26.8310    6.8620 O.2     7  TYR7       -0.2867
      5  CB        53.5920   25.8740    5.4460 C.3     7  TYR7        0.0534
      6  CG        54.7330   26.0080    4.4680 C.ar    7  TYR7       -0.0201
      7  CD1       55.5490   27.1340    4.4730 C.ar    7  TYR7       -0.0009
      8  CD2       54.9900   25.0060    3.5290 C.ar    7  TYR7       -0.0009
      9  CE1       56.6050   27.2700    3.5700 C.ar    7  TYR7        0.0417
     10  CE2       56.0360   25.1310    2.6150 C.ar    7  TYR7        0.0417
     11  CZ        56.8430   26.2550    2.6460 C.ar    7  TYR7        0.1957
     12  OH        57.8850   26.3680    1.7460 O.3     7  TYR7       -0.2866
     13  N         49.2770   24.8060    9.1570 N.3     9  TYR9       -0.1241
     14  CA        49.6740   24.5670   10.5410 C.3     9  TYR9        0.1605
     15  C         48.4450   24.2680   11.3950 C.2     9  TYR9        0.2264
     16  O         47.4440   24.9670   11.3100 O.2     9  TYR9       -0.2867
     17  CB        50.4510   25.7580   11.1190 C.3     9  TYR9        0.0534
     18  CG        50.7550   25.5670   12.5830 C.ar    9  TYR9       -0.0201
     19  CD1       49.9790   26.1880   13.5630 C.ar    9  TYR9       -0.0009
     20  CD2       51.7810   24.7270   12.9860 C.ar    9  TYR9       -0.0009
     21  CE1       50.2340   25.9920   14.9080 C.ar    9  TYR9        0.0417
     22  CE2       52.0400   24.5200   14.3140 C.ar    9  TYR9        0.0417
     23  CZ        51.2610   25.1440   15.2750 C.ar    9  TYR9        0.1957
     24  OH        51.5450   24.9240   16.5990 O.3     9  TYR9       -0.2866
     25  N         48.0890   23.2370   18.5160 N.3    12  VAL12      -0.1231
     26  CA        48.3690   22.1970   19.5030 C.3    12  VAL12       0.1692
     27  C         47.9080   22.6420   20.8870 C.2    12  VAL12       0.2592
     28  O         47.7980   21.8320   21.7970 O.2    12  VAL12      -0.2718
     29  CB        49.8580   21.7250   19.5070 C.3    12  VAL12       0.0266
     30  CG1       50.3060   21.3020   18.1130 C.3    12  VAL12       0.0020
     31  CG2       50.7830   22.7840   20.0690 C.3    12  VAL12       0.0020
     32  N         47.6140   23.9390   21.0290 N.am   13  HIS13      -0.1976
     33  CA        46.9760   24.4990   22.2210 C.3    13  HIS13       0.1656
     34  C         45.8480   25.4200   21.7690 C.2    13  HIS13       0.2291
     35  O         45.8440   25.8780   20.6280 O.2    13  HIS13      -0.2864
     36  CB        47.9790   25.2680   23.0800 C.3    13  HIS13       0.0771
     37  CG        49.2310   24.5080   23.3640 C.ar   13  HIS13       0.0820
     38  ND1       49.2420   23.3510   24.1150 N.ar   13  HIS13      -0.2267
     39  CD2       50.5120   24.7280   22.9870 C.ar   13  HIS13       0.1154
     40  CE1       50.4760   22.8880   24.1820 C.ar   13  HIS13       0.1986
     41  NE2       51.2660   23.7050   23.5050 N.ar   13  HIS13      -0.2212
     42  N         45.2550   28.3680   22.2290 N.3    15  ASP15      -0.1225
     43  CA        45.6600   29.7500   21.9800 C.3    15  ASP15       0.1805
     44  C         46.4420   29.9440   20.6660 C.2    15  ASP15       0.2597
     45  O         46.8270   31.0600   20.3170 O.2    15  ASP15      -0.2718
     46  CB        46.4370   30.3020   23.1870 C.3    15  ASP15       0.1424
     47  CG        47.6940   29.5060   23.5110 C.2    15  ASP15       0.3668
     48  OD1       48.2930   29.7860   24.5680 O.co2  15  ASP15      -0.2456
     49  OD2       48.1010   28.6180   22.7290 O.co2  15  ASP15      -0.2456
     50  N         46.6860   28.8490   19.9590 N.am   16  GLU16      -0.1979
     51  CA        47.3270   28.8970   18.6540 C.3    16  GLU16       0.1602
     52  C         46.2560   28.9450   17.5910 C.2    16  GLU16       0.2287
     53  O         45.1170   28.5910   17.8670 O.2    16  GLU16      -0.2864
     54  CB        48.2270   27.6710   18.4510 C.3    16  GLU16       0.0415
     55  CG        49.3520   27.6170   19.4480 C.3    16  GLU16       0.1163
     56  CD        50.2060   26.3860   19.3370 C.2    16  GLU16       0.3649
     57  OE1       49.8280   25.4270   18.6480 O.co2  16  GLU16      -0.2457
     58  OE2       51.2780   26.3780   19.9500 O.co2  16  GLU16      -0.2457
     59  N         57.9170   35.1750   22.8480 N.3    33  GLU33      -0.1231
     60  CA        58.1540   33.8220   22.3630 C.3    33  GLU33       0.1699
     61  C         58.7110   33.9170   20.9430 C.2    33  GLU33       0.2592
     62  O         58.0030   34.2950   20.0110 O.2    33  GLU33      -0.2718
     63  CB        56.8640   32.9960   22.3840 C.3    33  GLU33       0.0402
     64  CG        56.1830   32.9260   23.7460 C.3    33  GLU33       0.1161
     65  CD        55.7640   31.5170   24.1050 C.2    33  GLU33       0.3649
     66  OE1       54.7920   31.3510   24.8700 O.co2  33  GLU33      -0.2457
     67  OE2       56.4180   30.5680   23.6260 O.co2  33  GLU33      -0.2457
     68  N         59.9980   33.6010   20.8140 N.am   34  GLU34      -0.1966
     69  CA        60.7150   33.7190   19.5530 C.3    34  GLU34       0.1733
     70  C         60.2320   32.6820   18.5410 C.2    34  GLU34       0.2617
     71  O         60.0910   31.5080   18.8650 O.2    34  GLU34      -0.2715
     72  CB        62.2120   33.5720   19.8040 C.3    34  GLU34       0.0429
     73  CG        63.0950   34.1680   18.7340 C.3    34  GLU34       0.1163
     74  CD        64.5220   34.3620   19.2130 C.2    34  GLU34       0.3649
     75  OE1       65.0130   35.5060   19.1380 O.co2  34  GLU34      -0.2457
     76  OE2       65.1480   33.3780   19.6710 O.co2  34  GLU34      -0.2457
     77  N         59.9700   33.1340   17.3160 N.am   35  GLY35      -0.1940
     78  CA        59.3920   32.2990   16.2590 C.3    35  GLY35       0.2014
     79  C         57.8630   32.3280   16.2050 C.2    35  GLY35       0.2638
     80  O         57.2500   31.6650   15.3690 O.2    35  GLY35      -0.2714
     81  N         57.2420   33.1070   17.0870 N.am   36  TRP36      -0.1973
     82  CA        55.7720   33.1610   17.1830 C.3    36  TRP36       0.1640
     83  C         55.2040   34.5510   16.9490 C.2    36  TRP36       0.2290
     84  O         55.8370   35.5570   17.2590 O.2    36  TRP36      -0.2864
     85  CB        55.2900   32.5770   18.5090 C.3    36  TRP36       0.0576
     86  CG        55.4870   31.0950   18.5320 C.ar   36  TRP36       0.0006
     87  CD1       56.6230   30.4210   18.8890 C.ar   36  TRP36       0.0946
     88  CD2       54.5400   30.0990   18.1300 C.ar   36  TRP36       0.0152
     89  NE1       56.4390   29.0670   18.7450 N.ar   36  TRP36      -0.2442
     90  CE2       55.1650   28.8430   18.2820 C.ar   36  TRP36       0.0810
     91  CE3       53.2210   30.1470   17.6670 C.ar   36  TRP36       0.0012
     92  CZ2       54.5120   27.6460   18.0020 C.ar   36  TRP36       0.0191
     93  CZ3       52.5690   28.9480   17.3870 C.ar   36  TRP36       0.0001
     94  CH2       53.2250   27.7180   17.5440 C.ar   36  TRP36       0.0015
     95  N         48.0230   32.6280   18.3210 N.3    47  MET47      -0.1245
     96  CA        49.4010   32.6180   17.8670 C.3    47  MET47       0.1570
     97  C         49.6850   31.5140   16.8420 C.2    47  MET47       0.2261
     98  O         49.0240   30.4740   16.8220 O.2    47  MET47      -0.2867
     99  CB        50.3780   32.5690   19.0490 C.3    47  MET47       0.0387
    100  CG        50.1920   31.3870   19.9790 C.3    47  MET47       0.0595
    101  SD        51.0190   31.6200   21.5700 S.3    47  MET47      -0.1393
    102  CE        50.2590   33.1550   22.1490 C.3    47  MET47       0.0692
    103  N         53.2130   29.9770   14.1580 N.3    49  PRO49      -0.2102
    104  CA        54.6710   30.0260   13.9320 C.3    49  PRO49       0.1504
    105  C         55.0410   30.8950   12.7350 C.2    49  PRO49       0.2576
    106  O         54.3910   30.7890   11.6920 O.2    49  PRO49      -0.2718
    107  CB        55.0420   28.5590   13.6900 C.3    49  PRO49       0.0282
    108  CG        53.7910   27.8720   13.3430 C.3    49  PRO49       0.0208
    109  CD        52.6380   28.6470   13.8660 C.3    49  PRO49       0.0893
    110  N         56.0650   31.7440   12.8810 N.am   50  ASP50      -0.1960
    111  CA        56.3960   32.7360   11.8300 C.3    50  ASP50       0.1840
    112  C         56.9620   32.2030   10.5140 C.2    50  ASP50       0.2622
    113  O         56.9390   32.9040    9.5120 O.2    50  ASP50      -0.2715
    114  CB        57.2320   33.9420   12.3430 C.3    50  ASP50       0.1450
    115  CG        58.6010   33.5540   12.8750 C.2    50  ASP50       0.3671
    116  OD1       58.9900   32.3790   12.7280 O.co2  50  ASP50      -0.2456
    117  OD2       59.2840   34.4540   13.4480 O.co2  50  ASP50      -0.2456
    118  N         57.4580   30.9810   10.4970 N.am   51  ASN51      -0.1958
    119  CA        58.0100   30.4550    9.2480 C.3    51  ASN51       0.1819
    120  C         57.0040   29.6460    8.4160 C.2    51  ASN51       0.2621
    121  O         57.3760   28.9970    7.4380 O.2    51  ASN51      -0.2715
    122  CB        59.3070   29.6720    9.4950 C.3    51  ASN51       0.1195
    123  CG        59.1460   28.5920   10.5320 C.2    51  ASN51       0.2630
    124  OD1       58.1790   28.5860   11.3040 O.2    51  ASN51      -0.2716
    125  ND2       60.1040   27.6710   10.5690 N.am   51  ASN51      -0.0877
    126  N         55.7370   29.6970    8.8180 N.am   52  PHE52      -0.1974
    127  CA        54.6400   29.1260    8.0460 C.3    52  PHE52       0.1639
    128  C         53.9510   30.2130    7.2370 C.2    52  PHE52       0.2290
    129  O         53.0320   29.9430    6.4570 O.2    52  PHE52      -0.2864
    130  CB        53.6420   28.4620    8.9860 C.3    52  PHE52       0.0560
    131  CG        54.1010   27.1230    9.5090 C.ar   52  PHE52      -0.0200
    132  CD1       55.1940   27.0370   10.3660 C.ar   52  PHE52      -0.0042
    133  CD2       53.4380   25.9580    9.1470 C.ar   52  PHE52      -0.0042
    134  CE1       55.6090   25.8240   10.8550 C.ar   52  PHE52      -0.0003
    135  CE2       53.8590   24.7200    9.6240 C.ar   52  PHE52      -0.0003
    136  CZ        54.9370   24.6570   10.4770 C.ar   52  PHE52      -0.0000
@<TRIPOS>BOND
     1    12    11    1
     2    10    11   ar
     3    10     8   ar
     4    11     9   ar
     5     8     6   ar
     6     9     7   ar
     7     6     7   ar
     8     6     5    1
     9     1     2    1
    10     2     5    1
    11     2     3    1
    12     3     4    2
    13   129   128    2
    14   128   127    1
    15   121   120    2
    16   127   126    1
    17   127   130    1
    18   120   126   am
    19   120   119    1
    20   130   131    1
    21   133   131   ar
    22   133   135   ar
    23    13    14    1
    24   119   122    1
    25   119   118    1
    26   122   123    1
    27   131   132   ar
    28   113   112    2
    29   135   136   ar
    30   132   134   ar
    31   136   134   ar
    32   118   112   am
    33   112   111    1
    34   123   125   am
    35   123   124    2
    36    14    17    1
    37    14    15    1
    38    17    18    1
    39    16    15    2
    40   106   105    2
    41   111   114    1
    42   111   110    1
    43   114   115    1
    44    18    20   ar
    45    18    19   ar
    46   116   115   ar
    47   105   110   am
    48   105   104    1
    49   115   117   ar
    50    20    22   ar
    51   108   107    1
    52   108   109    1
    53    19    21   ar
    54   107   104    1
    55   109   103    1
    56   104   103    1
    57    22    23   ar
    58    21    23   ar
    59    23    24    1
    60    80    79    2
    61    79    78    1
    62    79    81   am
    63    78    77    1
    64    98    97    2
    65    97    96    1
    66    83    82    1
    67    83    84    2
    68    81    82    1
    69    82    85    1
    70    77    70   am
    71    93    94   ar
    72    93    91   ar
    73    94    92   ar
    74    52    53    2
    75    52    51    1
    76    91    88   ar
    77    96    95    1
    78    96    99    1
    79    92    90   ar
    80    30    29    1
    81    88    90   ar
    82    88    86   ar
    83    90    89   ar
    84    54    51    1
    85    54    55    1
    86    85    86    1
    87    25    26    1
    88    86    87   ar
    89    70    71    2
    90    70    69    1
    91    57    56   ar
    92    51    50    1
    93    73    74    1
    94    73    72    1
    95    89    87   ar
    96    99   100    1
    97    75    74   ar
    98    74    76   ar
    99    56    55    1
   100    56    58   ar
   101    26    29    1
   102    26    27    1
   103    29    31    1
   104    69    72    1
   105    69    68    1
   106    50    44   am
   107   100   101    1
   108    62    61    2
   109    45    44    2
   110    35    34    2
   111    44    43    1
   112    68    61   am
   113    27    32   am
   114    27    28    2
   115    61    60    1
   116    32    33    1
   117   101   102    1
   118    34    33    1
   119    43    42    1
   120    43    46    1
   121    33    36    1
   122    60    63    1
   123    60    59    1
   124    63    64    1
   125    49    47   ar
   126    39    37   ar
   127    39    41   ar
   128    36    37    1
   129    46    47    1
   130    37    38   ar
   131    41    40   ar
   132    47    48   ar
   133    67    65   ar
   134    64    65    1
   135    65    66   ar
   136    38    40   ar
