@<TRIPOS>MOLECULE
tmp/2j6xH00.pdb
 216 204 0 0 0
SMALL
GASTEIGER

@<TRIPOS>ATOM
      1  N         42.0750  121.4750   80.9030 N.3    34  TYR34      -0.1227
      2  CA        43.0420  121.8080   79.8540 C.3    34  TYR34       0.1736
      3  C         42.9990  120.7260   78.7600 C.2    34  TYR34       0.2595
      4  O         43.0650  121.0160   77.5650 O.2    34  TYR34      -0.2718
      5  CB        44.4740  121.9380   80.4210 C.3    34  TYR34       0.0548
      6  CG        45.5370  122.0580   79.3420 C.ar   34  TYR34      -0.0200
      7  CD1       45.9620  123.3060   78.8900 C.ar   34  TYR34      -0.0009
      8  CD2       46.0810  120.9200   78.7400 C.ar   34  TYR34      -0.0009
      9  CE1       46.9150  123.4160   77.8870 C.ar   34  TYR34       0.0417
     10  CE2       47.0090  121.0180   77.7270 C.ar   34  TYR34       0.0417
     11  CZ        47.4300  122.2690   77.3080 C.ar   34  TYR34       0.1957
     12  OH        48.3790  122.3730   76.3060 O.3    34  TYR34      -0.2866
     13  N         42.8930  119.4670   79.1740 N.am   35  ILE35      -0.1980
     14  CA        42.8770  118.3700   78.2340 C.3    35  ILE35       0.1595
     15  C         41.5340  118.3020   77.5180 C.2    35  ILE35       0.2287
     16  O         41.4870  118.2010   76.2970 O.2    35  ILE35      -0.2864
     17  CB        43.1670  117.0180   78.9280 C.3    35  ILE35       0.0276
     18  CG1       44.6070  116.9920   79.4840 C.3    35  ILE35       0.0022
     19  CG2       42.8840  115.8490   77.9520 C.3    35  ILE35       0.0022
     20  CD1       44.8930  115.8320   80.4520 C.3    35  ILE35       0.0001
     21  N         33.9490  121.8730   68.9860 N.3    45  LYS45      -0.1245
     22  CA        34.2450  120.5430   69.5460 C.3    45  LYS45       0.1561
     23  C         33.0180  119.6340   69.4620 C.2    45  LYS45       0.2260
     24  O         33.1450  118.4410   69.2060 O.2    45  LYS45      -0.2867
     25  CB        34.7610  120.6100   70.9880 C.3    45  LYS45       0.0271
     26  CG        35.4490  119.2910   71.4500 C.3    45  LYS45       0.0035
     27  CD        36.0370  119.3510   72.8870 C.3    45  LYS45       0.0206
     28  CE        34.9780  119.5780   73.9590 C.3    45  LYS45       0.1093
     29  NZ        34.2730  118.3210   74.3280 N.3    45  LYS45      -0.1314
     30  N         32.7130  118.5730   65.7890 N.3    48  ASN48      -0.1240
     31  CA        33.6430  117.4730   65.5240 C.3    48  ASN48       0.1653
     32  C         32.9870  116.1350   65.7770 C.2    48  ASN48       0.2266
     33  O         33.1050  115.2100   64.9820 O.2    48  ASN48      -0.2867
     34  CB        34.9060  117.6210   66.3860 C.3    48  ASN48       0.1155
     35  CG        35.8760  118.6740   65.8440 C.2    48  ASN48       0.2627
     36  OD1       35.6550  119.2650   64.7800 O.2    48  ASN48      -0.2716
     37  ND2       36.9490  118.9010   66.5610 N.am   48  ASN48      -0.0877
     38  N         48.1090  110.7940   68.0600 N.3    86  ALA86      -0.1231
     39  CA        48.2740  112.2280   67.8240 C.3    86  ALA86       0.1679
     40  C         49.3420  112.8480   68.7420 C.2    86  ALA86       0.2434
     41  O         49.4890  112.4220   69.8870 O.2    86  ALA86      -0.2733
     42  CB        46.9440  112.9530   67.9850 C.3    86  ALA86       0.0304
     43  N         50.1030  113.8410   68.2280 N.am   87  PRO87      -0.2718
     44  CA        51.0210  114.5680   69.0880 C.3    87  PRO87       0.1535
     45  C         50.2160  115.4020   70.0780 C.2    87  PRO87       0.2598
     46  O         49.3910  116.2160   69.6740 O.2    87  PRO87      -0.2715
     47  CB        51.8060  115.4610   68.1150 C.3    87  PRO87       0.0310
     48  CG        50.9660  115.5570   66.8960 C.3    87  PRO87       0.0237
     49  CD        50.1260  114.3290   66.8360 C.3    87  PRO87       0.0939
     50  N         50.4220  115.1560   71.3630 N.am   88  ILE88      -0.1964
     51  CA        49.7320  115.8930   72.3970 C.3    88  ILE88       0.1727
     52  C         50.7780  116.2450   73.4520 C.2    88  ILE88       0.2616
     53  O         51.6260  115.4160   73.8000 O.2    88  ILE88      -0.2715
     54  CB        48.5560  115.0800   72.9770 C.3    88  ILE88       0.0290
     55  CG1       47.3720  115.1260   72.0130 C.3    88  ILE88       0.0022
     56  CG2       48.1320  115.6040   74.3480 C.3    88  ILE88       0.0023
     57  CD1       46.3730  114.0380   72.2570 C.3    88  ILE88       0.0001
     58  N         50.7200  117.4870   73.9200 N.am   89  ALA89      -0.1977
     59  CA        51.7000  118.0350   74.8380 C.3    89  ALA89       0.1597
     60  C         51.2750  117.7390   76.2630 C.2    89  ALA89       0.2287
     61  O         50.0740  117.6600   76.5470 O.2    89  ALA89      -0.2864
     62  CB        51.8000  119.5350   74.6270 C.3    89  ALA89       0.0319
     63  N         49.9140  115.7180   82.6980 N.3    93  LEU93      -0.1245
     64  CA        48.6620  116.2510   83.2270 C.3    93  LEU93       0.1561
     65  C         47.6620  115.1270   83.4370 C.2    93  LEU93       0.2260
     66  O         46.7700  115.2350   84.2830 O.2    93  LEU93      -0.2867
     67  CB        48.0640  117.3040   82.2840 C.3    93  LEU93       0.0270
     68  CG        48.8030  118.6260   82.0590 C.3    93  LEU93       0.0019
     69  CD1       48.1670  119.3820   80.8970 C.3    93  LEU93       0.0001
     70  CD2       48.8080  119.5040   83.2890 C.3    93  LEU93       0.0001
     71  N         55.0670  115.2040   70.6270 N.3   116  SER116     -0.1217
     72  CA        54.9040  116.6580   70.6960 C.3   116  SER116      0.1889
     73  C         56.2250  117.3160   71.0760 C.2   116  SER116      0.2288
     74  O         56.9010  116.8390   71.9810 O.2   116  SER116     -0.2866
     75  CB        53.8590  117.0030   71.7660 C.3   116  SER116      0.2089
     76  OG        53.7650  118.3990   71.9710 O.3   116  SER116     -0.2183
     77  N         56.5950  115.9220   66.1880 N.3   138  GLN138     -0.1245
     78  CA        55.8320  117.1260   65.8940 C.3   138  GLN138      0.1566
     79  C         56.5680  118.3940   66.3370 C.2   138  GLN138      0.2260
     80  O         56.8080  118.6270   67.5310 O.2   138  GLN138     -0.2867
     81  CB        54.4430  117.0710   66.5140 C.3   138  GLN138      0.0367
     82  CG        53.6380  118.3340   66.2460 C.3   138  GLN138      0.0905
     83  CD        53.7730  119.3490   67.3590 C.2   138  GLN138      0.2608
     84  OE1       53.6550  119.0060   68.5320 O.2   138  GLN138     -0.2717
     85  NE2       54.0210  120.6050   66.9980 N.am  138  GLN138     -0.0878
     86  N         56.8440  122.4820   66.6840 N.3   140  TYR140     -0.1241
     87  CA        56.3760  123.8670   66.6450 C.3   140  TYR140      0.1605
     88  C         57.6190  124.6930   66.3190 C.2   140  TYR140      0.2264
     89  O         58.6390  124.6240   67.0250 O.2   140  TYR140     -0.2867
     90  CB        55.8150  124.3210   67.9890 C.3   140  TYR140      0.0534
     91  CG        54.4070  123.8900   68.3120 C.ar  140  TYR140     -0.0201
     92  CD1       54.1510  123.1470   69.4540 C.ar  140  TYR140     -0.0009
     93  CD2       53.3250  124.2570   67.5100 C.ar  140  TYR140     -0.0009
     94  CE1       52.8530  122.7660   69.7890 C.ar  140  TYR140      0.0417
     95  CE2       52.0210  123.8640   67.8330 C.ar  140  TYR140      0.0417
     96  CZ        51.8040  123.1210   68.9810 C.ar  140  TYR140      0.1957
     97  OH        50.5470  122.7210   69.3550 O.3   140  TYR140     -0.2866
     98  N         52.9220  121.3640   62.8350 N.3   166  THR166     -0.1218
     99  CA        51.6470  121.9280   63.2630 C.3   166  THR166      0.1862
    100  C         51.6390  123.4430   63.0340 C.2   166  THR166      0.2287
    101  O         52.3200  124.2040   63.7290 O.2   166  THR166     -0.2866
    102  CB        51.3000  121.5760   64.7080 C.3   166  THR166      0.1770
    103  OG1       51.4540  120.1600   64.9060 O.3   166  THR166     -0.2211
    104  CG2       49.8600  121.9780   65.0060 C.3   166  THR166      0.0375
    105  N         50.1310  119.7480   59.4850 N.3   215  LYS215     -0.1245
    106  CA        49.0070  119.4250   60.3510 C.3   215  LYS215      0.1561
    107  C         48.2000  120.6640   60.6790 C.2   215  LYS215      0.2260
    108  O         48.7590  121.6880   61.0070 O.2   215  LYS215     -0.2867
    109  CB        49.5130  118.7540   61.6280 C.3   215  LYS215      0.0271
    110  CG        48.4420  118.3530   62.6290 C.3   215  LYS215      0.0035
    111  CD        49.0220  117.4160   63.6610 C.3   215  LYS215      0.0206
    112  CE        48.0300  117.1010   64.7580 C.3   215  LYS215      0.1093
    113  NZ        47.8960  118.2340   65.7090 N.3   215  LYS215     -0.1314
    114  N         42.9890  118.2720   60.3510 N.3   237  SER237     -0.1217
    115  CA        42.8630  118.4580   61.7770 C.3   237  SER237      0.1889
    116  C         42.3220  119.8630   62.1020 C.2   237  SER237      0.2288
    117  O         42.6290  120.8340   61.3960 O.2   237  SER237     -0.2866
    118  CB        44.2610  118.3110   62.3850 C.3   237  SER237      0.2089
    119  OG        44.2750  118.6210   63.7730 O.3   237  SER237     -0.2183
    120  N         42.7630  120.5460   65.5330 N.3   239  HIS239     -0.1226
    121  CA        43.4730  120.5720   66.7860 C.3   239  HIS239      0.1752
    122  C         42.5050  120.2340   67.9150 C.2   239  HIS239      0.2596
    123  O         42.5750  120.7970   68.9920 O.2   239  HIS239     -0.2718
    124  CB        44.0790  121.9620   66.9820 C.3   239  HIS239      0.0759
    125  CG        45.3300  121.9860   67.8050 C.ar  239  HIS239      0.0818
    126  ND1       46.5780  122.1570   67.2470 N.ar  239  HIS239     -0.2268
    127  CD2       45.5210  121.9140   69.1420 C.ar  239  HIS239      0.1154
    128  CE1       47.4870  122.1710   68.2040 C.ar  239  HIS239      0.1986
    129  NE2       46.8710  122.0260   69.3640 N.ar  239  HIS239     -0.2212
    130  N         41.5890  119.3120   67.6510 N.am  240  GLY240     -0.1957
    131  CA        40.5780  118.9420   68.6220 C.3   240  GLY240      0.1869
    132  C         39.6690  120.0830   69.0440 C.2   240  GLY240      0.2309
    133  O         39.1620  120.0770   70.1700 O.2   240  GLY240     -0.2863
    134  N         40.5690  123.0760   69.6660 N.3   242  ARG242     -0.1245
    135  CA        41.2820  123.8820   70.6450 C.3   242  ARG242      0.1563
    136  C         41.8420  125.1510   70.0110 C.2   242  ARG242      0.2260
    137  O         42.5140  125.9290   70.6840 O.2   242  ARG242     -0.2867
    138  CB        42.4410  123.0770   71.2350 C.3   242  ARG242      0.0307
    139  CG        42.0220  121.7990   71.9580 C.3   242  ARG242      0.0489
    140  CD        43.2590  121.0340   72.3920 C.3   242  ARG242      0.2205
    141  NE        43.9490  121.7720   73.4370 N.pl3 242  ARG242     -0.0865
    142  CZ        43.5900  121.7530   74.7130 C.cat 242  ARG242      0.5346
    143  NH1       42.5630  121.0000   75.1030 N.pl3 242  ARG242      0.1354
    144  NH2       44.2550  122.4810   75.6010 N.pl3 242  ARG242      0.1354
    145  N         42.3990  113.7360   61.8190 N.3   270  ASP270     -0.1225
    146  CA        42.0410  113.7050   63.2300 C.3   270  ASP270      0.1805
    147  C         40.9840  114.7400   63.5970 C.2   270  ASP270      0.2598
    148  O         40.6320  115.6240   62.7850 O.2   270  ASP270     -0.2718
    149  CB        43.2840  113.7770   64.1540 C.3   270  ASP270      0.1424
    150  CG        43.7560  115.2030   64.4310 C.2   270  ASP270      0.3668
    151  OD1       43.0070  116.1810   64.2230 O.co2 270  ASP270     -0.2456
    152  OD2       44.9020  115.3410   64.8770 O.co2 270  ASP270     -0.2456
    153  N         40.4940  114.5890   64.8290 N.am  271  SER271     -0.1938
    154  CA        39.6500  115.5570   65.5380 C.3   271  SER271      0.2055
    155  C         38.2130  115.0760   65.6700 C.2   271  SER271      0.2644
    156  O         37.3310  115.4580   64.9080 O.2   271  SER271     -0.2714
    157  CB        39.7390  116.9650   64.9520 C.3   271  SER271      0.2130
    158  OG        41.0120  117.5530   65.1890 O.3   271  SER271     -0.2179
    159  N         37.9910  114.2210   66.6560 N.am  272  GLY272     -0.1939
    160  CA        36.6460  113.8200   67.0310 C.3   272  GLY272      0.2014
    161  C         36.4080  112.3290   66.9730 C.2   272  GLY272      0.2639
    162  O         35.2980  111.8790   67.2380 O.2   272  GLY272     -0.2714
    163  N         37.4610  111.5740   66.6500 N.am  273  VAL273     -0.1963
    164  CA        37.4290  110.1140   66.5530 C.3   273  VAL273      0.1727
    165  C         37.2630  109.4720   67.9350 C.2   273  VAL273      0.2616
    166  O         38.1670  109.5510   68.7780 O.2   273  VAL273     -0.2715
    167  CB        38.6940  109.5260   65.8370 C.3   273  VAL273      0.0290
    168  CG1       38.5530  107.9980   65.6230 C.3   273  VAL273      0.0023
    169  CG2       38.9520  110.2160   64.4940 C.3   273  VAL273      0.0023
    170  N         36.0980  108.8420   68.1280 N.am  274  ARG274     -0.1977
    171  CA        35.6950  108.2080   69.3780 C.3   274  ARG274      0.1597
    172  C         35.2770  106.7370   69.2090 C.2   274  ARG274      0.2287
    173  O         35.1800  106.0090   70.1990 O.2   274  ARG274     -0.2864
    174  CB        34.5500  109.0050   70.0520 C.3   274  ARG274      0.0334
    175  CG        34.8730  110.4450   70.4760 C.3   274  ARG274      0.0492
    176  CD        35.9870  110.4990   71.5410 C.3   274  ARG274      0.2205
    177  NE        36.3550  111.8730   71.9110 N.pl3 274  ARG274     -0.0865
    178  CZ        37.2730  112.6150   71.2960 C.cat 274  ARG274      0.5346
    179  NH1       37.9380  112.1300   70.2620 N.pl3 274  ARG274      0.1354
    180  NH2       37.5300  113.8550   71.7190 N.pl3 274  ARG274      0.1354
    181  N         44.1010  109.7720   63.5560 N.3   291  ALA291     -0.1231
    182  CA        44.9690  109.8780   64.7200 C.3   291  ALA291      0.1694
    183  C         44.1000  109.9850   65.9640 C.2   291  ALA291      0.2592
    184  O         43.0550  110.6180   65.9370 O.2   291  ALA291     -0.2718
    185  CB        45.9250  111.0610   64.5850 C.3   291  ALA291      0.0304
    186  N         44.5370  109.3460   67.0440 N.am  292  LEU292     -0.1966
    187  CA        43.7610  109.2840   68.2740 C.3   292  LEU292      0.1728
    188  C         44.3910  110.1940   69.3110 C.2   292  LEU292      0.2617
    189  O         45.6190  110.2910   69.3870 O.2   292  LEU292     -0.2715
    190  CB        43.6860  107.8500   68.7830 C.3   292  LEU292      0.0311
    191  CG        43.1670  106.7580   67.8620 C.3   292  LEU292      0.0022
    192  CD1       43.1090  105.4670   68.6740 C.3   292  LEU292      0.0001
    193  CD2       41.7800  107.1120   67.2510 C.3   292  LEU292      0.0001
    194  N         43.5460  110.8640   70.0920 N.am  293  GLY293     -0.1940
    195  CA        43.9890  111.9260   70.9950 C.3   293  GLY293      0.2014
    196  C         43.4080  111.7700   72.3800 C.2   293  GLY293      0.2638
    197  O         43.8740  110.9300   73.1370 O.2   293  GLY293     -0.2714
    198  N         42.3630  112.5440   72.6860 N.am  294  ARG294     -0.1977
    199  CA        41.7850  112.6380   74.0560 C.3   294  ARG294      0.1597
    200  C         41.4290  111.3250   74.7570 C.2   294  ARG294      0.2287
    201  O         41.7550  111.1640   75.9440 O.2   294  ARG294     -0.2864
    202  CB        40.5620  113.5780   74.0960 C.3   294  ARG294      0.0334
    203  CG        40.8730  115.0750   73.9840 C.3   294  ARG294      0.0492
    204  CD        39.5990  115.9050   74.1320 C.3   294  ARG294      0.2205
    205  NE        39.8090  117.3550   74.0620 N.pl3 294  ARG294     -0.0865
    206  CZ        39.6960  118.1080   72.9620 C.cat 294  ARG294      0.5346
    207  NH1       39.3810  117.5750   71.7890 N.pl3 294  ARG294      0.1354
    208  NH2       39.8910  119.4150   73.0360 N.pl3 294  ARG294      0.1354
    209  N         44.3880  109.6510   76.1070 N.3   297  LEU297     -0.1245
    210  CA        44.7510  110.3730   77.3310 C.3   297  LEU297      0.1561
    211  C         43.8690  110.0400   78.5430 C.2   297  LEU297      0.2260
    212  O         44.3930  109.7760   79.6150 O.2   297  LEU297     -0.2867
    213  CB        44.7950  111.8810   77.0850 C.3   297  LEU297      0.0270
    214  CG        46.1500  112.4910   76.7000 C.3   297  LEU297      0.0019
    215  CD1       46.9000  111.6710   75.6520 C.3   297  LEU297      0.0001
    216  CD2       45.9240  113.8910   76.2070 C.3   297  LEU297      0.0001
@<TRIPOS>BOND
     1   105   106    1
     2   106   107    1
     3   106   109    1
     4   114   115    1
     5   107   108    2
     6   117   116    2
     7   109   110    1
     8   115   116    1
     9   115   118    1
    10   145   146    1
    11   118   119    1
    12   110   111    1
    13   148   147    2
    14    98    99    1
    15   100    99    1
    16   100   101    2
    17   146   147    1
    18   146   149    1
    19    99   102    1
    20   181   182    1
    21   147   153   am
    22   111   112    1
    23   149   150    1
    24   151   150   ar
    25   150   152   ar
    26   169   167    1
    27   185   182    1
    28   102   103    1
    29   102   104    1
    30   182   183    1
    31   112   113    1
    32    36    35    2
    33   153   154    1
    34   156   155    2
    35   157   158    1
    36   157   154    1
    37    33    32    2
    38    31    32    1
    39    31    30    1
    40    31    34    1
    41   120   121    1
    42   154   155    1
    43   168   167    1
    44   155   159   am
    45   167   164    1
    46    35    34    1
    47    35    37   am
    48    78    77    1
    49    78    79    1
    50    78    81    1
    51   184   183    2
    52   183   186   am
    53    82    81    1
    54    82    83    1
    55    88    87    1
    56    88    89    2
    57    79    80    2
    58   164   163    1
    59   164   165    1
    60    87    86    1
    61    87    90    1
    62   163   161   am
    63   159   160    1
    64   121   124    1
    65   121   122    1
    66    49    48    1
    67    49    43    1
    68    48    47    1
    69   161   160    1
    70   161   162    2
    71   124   125    1
    72    85    83   am
    73   186   187    1
    74   126   125   ar
    75   126   128   ar
    76   193   191    1
    77    83    84    2
    78    93    95   ar
    79    93    91   ar
    80   130   122   am
    81   130   131    1
    82   125   127   ar
    83    39    42    1
    84    39    38    1
    85    39    40    1
    86    95    96   ar
    87   191   192    1
    88   191   190    1
    89   122   123    2
    90   165   170   am
    91   165   166    2
    92    90    91    1
    93    47    44    1
    94   170   171    1
    95   128   129   ar
    96    43    40   am
    97    43    44    1
    98   187   190    1
    99   187   188    1
   100    91    92   ar
   101   131   132    1
   102    40    41    2
   103    96    97    1
   104    96    94   ar
   105    21    22    1
   106   132   133    2
   107    44    45    1
   108   127   129   ar
   109    24    23    2
   110   172   171    1
   111   172   173    2
   112   188   189    2
   113   188   194   am
   114   171   174    1
   115    92    94   ar
   116    23    22    1
   117    22    25    1
   118   134   135    1
   119    46    45    2
   120   136   135    1
   121   136   137    2
   122   174   175    1
   123    45    50   am
   124   194   195    1
   125   179   178    1
   126   175   176    1
   127    71    72    1
   128   135   138    1
   129    72    73    1
   130    72    75    1
   131    25    26    1
   132   195   196    1
   133    73    74    2
   134   138   139    1
   135   178   180    1
   136   178   177    2
   137    50    51    1
   138    26    27    1
   139   176   177    1
   140    75    76    1
   141   207   206    1
   142   139   140    1
   143    55    57    1
   144    55    54    1
   145   196   198   am
   146   196   197    2
   147   140   141    1
   148    51    54    1
   149    51    52    1
   150   198   199    1
   151    27    28    1
   152   206   208    1
   153   206   205    2
   154    54    56    1
   155   141   142    2
   156    52    53    2
   157    52    58   am
   158    58    59    1
   159    28    29    1
   160   203   202    1
   161   203   204    1
   162   199   202    1
   163   199   200    1
   164   205   204    1
   165    62    59    1
   166   142   143    1
   167   142   144    1
   168   200   201    2
   169    59    60    1
   170   215   214    1
   171   209   210    1
   172   216   214    1
   173    60    61    2
   174    16    15    2
   175    12    11    1
   176   214   213    1
   177   213   210    1
   178    11    10   ar
   179    11     9   ar
   180   210   211    1
   181    15    14    1
   182     4     3    2
   183    10     8   ar
   184     9     7   ar
   185    19    17    1
   186    14    17    1
   187    14    13    1
   188   211   212    2
   189     8     6   ar
   190     3    13   am
   191     3     2    1
   192     7     6   ar
   193    17    18    1
   194     6     5    1
   195    18    20    1
   196     2     5    1
   197     2     1    1
   198    69    68    1
   199    68    67    1
   200    68    70    1
   201    67    64    1
   202    63    64    1
   203    64    65    1
   204    65    66    2
