@<TRIPOS>MOLECULE
tmp/2j72B00.pdb
 95 94 0 0 0
SMALL
GASTEIGER

@<TRIPOS>ATOM
      1  N         56.2020   20.7140   23.6380 N.3    23  TRP23      -0.1241
      2  CA        57.1350   20.5930   24.7520 C.3    23  TRP23       0.1605
      3  C         58.2180   19.6180   24.3450 C.2    23  TRP23       0.2264
      4  O         57.9630   18.4400   24.1370 O.2    23  TRP23      -0.2867
      5  CB        56.4370   20.1350   26.0250 C.3    23  TRP23       0.0550
      6  CG        57.3270   20.1820   27.2510 C.ar   23  TRP23       0.0003
      7  CD1       58.0410   19.1430   27.8170 C.ar   23  TRP23       0.0946
      8  CD2       57.6220   21.3460   28.0560 C.ar   23  TRP23       0.0152
      9  NE1       58.7240   19.5960   28.9340 N.ar   23  TRP23      -0.2442
     10  CE2       58.4960   20.9300   29.0970 C.ar   23  TRP23       0.0810
     11  CE3       57.2100   22.6770   28.0240 C.ar   23  TRP23       0.0012
     12  CZ2       58.9650   21.8160   30.0980 C.ar   23  TRP23       0.0191
     13  CZ3       57.7020   23.5790   29.0720 C.ar   23  TRP23       0.0001
     14  CH2       58.5160   23.1190   30.0690 C.ar   23  TRP23       0.0015
     15  N         62.3930   18.4100   25.0810 N.3    25  TRP25      -0.1241
     16  CA        63.4910   18.3950   26.0330 C.3    25  TRP25       0.1605
     17  C         64.6260   17.5450   25.4760 C.2    25  TRP25       0.2264
     18  O         64.4130   16.5090   24.8650 O.2    25  TRP25      -0.2867
     19  CB        63.0650   17.9100   27.4100 C.3    25  TRP25       0.0550
     20  CG        62.6440   16.4900   27.5510 C.ar   25  TRP25       0.0003
     21  CD1       63.3620   15.4790   28.0760 C.ar   25  TRP25       0.0946
     22  CD2       61.3390   15.9210   27.2340 C.ar   25  TRP25       0.0152
     23  NE1       62.6260   14.3360   28.1010 N.ar   25  TRP25      -0.2442
     24  CE2       61.3840   14.5670   27.5740 C.ar   25  TRP25       0.0810
     25  CE3       60.1530   16.4350   26.7090 C.ar   25  TRP25       0.0012
     26  CZ2       60.2770   13.6900   27.4050 C.ar   25  TRP25       0.0191
     27  CZ3       59.0780   15.5790   26.5060 C.ar   25  TRP25       0.0001
     28  CH2       59.1390   14.2200   26.8810 C.ar   25  TRP25       0.0015
     29  N         70.5110   15.0000   29.1900 N.3    31  SER31      -0.1202
     30  CA        69.1410   15.3240   29.4650 C.3    31  SER31       0.2020
     31  C         69.0500   16.6500   30.1900 C.2    31  SER31       0.2619
     32  O         69.8770   16.9490   31.0530 O.2    31  SER31      -0.2717
     33  CB        68.4850   14.2390   30.3340 C.3    31  SER31       0.2103
     34  OG        67.0600   14.4330   30.3010 O.3    31  SER31      -0.2182
     35  N         68.0650   17.4570   29.8110 N.am   32  GLN32      -0.1965
     36  CA        67.7960   18.7050   30.4950 C.3    32  GLN32       0.1733
     37  C         66.2840   18.8960   30.5420 C.2    32  GLN32       0.2616
     38  O         65.5650   18.3210   29.7550 O.2    32  GLN32      -0.2715
     39  CB        68.4320   19.8910   29.7410 C.3    32  GLN32       0.0408
     40  CG        69.9700   19.7860   29.6360 C.3    32  GLN32       0.0908
     41  CD        70.6040   21.1210   29.4130 C.2    32  GLN32       0.2608
     42  OE1       71.8310   21.2510   29.4960 O.2    32  GLN32      -0.2717
     43  NE2       69.7750   22.1290   29.1180 N.am   32  GLN32      -0.0878
     44  N         65.8040   19.6990   31.4750 N.am   33  GLU33      -0.1963
     45  CA        64.3950   20.1410   31.4060 C.3    33  GLU33       0.1733
     46  C         64.0760   20.8290   30.0550 C.2    33  GLU33       0.2616
     47  O         64.9250   21.5020   29.4700 O.2    33  GLU33      -0.2715
     48  CB        64.0660   21.1050   32.5530 C.3    33  GLU33       0.0429
     49  CG        63.9800   20.4100   33.9020 C.3    33  GLU33       0.1163
     50  CD        62.7920   19.4330   34.0570 C.2    33  GLU33       0.3649
     51  OE1       61.6790   19.6640   33.4650 O.co2  33  GLU33      -0.2457
     52  OE2       62.9600   18.4310   34.8370 O.co2  33  GLU33      -0.2457
     53  N         62.8160   20.6870   29.6190 N.am   34  GLY34      -0.1955
     54  CA        62.3280   21.2260   28.3690 C.3    34  GLY34       0.1869
     55  C         61.8380   22.6520   28.3620 C.2    34  GLY34       0.2309
     56  O         62.0010   23.4290   29.3190 O.2    34  GLY34      -0.2863
     57  N         56.2110   16.2510   23.5980 N.3    63  ILE63      -0.1245
     58  CA        54.8040   16.1470   23.9660 C.3    63  ILE63       0.1561
     59  C         54.0840   17.3050   23.2700 C.2    63  ILE63       0.2260
     60  O         54.5570   18.4520   23.3410 O.2    63  ILE63      -0.2867
     61  CB        54.5250   16.2460   25.4970 C.3    63  ILE63       0.0252
     62  CG1       55.1820   15.0880   26.2440 C.3    63  ILE63       0.0019
     63  CG2       53.0350   16.2370   25.7480 C.3    63  ILE63       0.0019
     64  CD1       55.5170   15.3740   27.7150 C.3    63  ILE63       0.0001
     65  N         49.7670   23.1060   29.5750 N.3    69  TRP69      -0.1241
     66  CA        49.4590   21.7590   30.0840 C.3    69  TRP69       0.1605
     67  C         47.9450   21.5190   30.3850 C.2    69  TRP69       0.2264
     68  O         47.5550   20.6910   31.2620 O.2    69  TRP69      -0.2867
     69  CB        50.2770   21.4470   31.3690 C.3    69  TRP69       0.0550
     70  CG        51.7480   21.3700   31.1420 C.ar   69  TRP69       0.0003
     71  CD1       52.6710   22.1740   31.6460 C.ar   69  TRP69       0.0946
     72  CD2       52.4430   20.4890   30.2400 C.ar   69  TRP69       0.0152
     73  NE1       53.9270   21.8280   31.2060 N.ar   69  TRP69      -0.2442
     74  CE2       53.8070   20.8140   30.3080 C.ar   69  TRP69       0.0810
     75  CE3       52.0330   19.4780   29.3630 C.ar   69  TRP69       0.0012
     76  CZ2       54.7830   20.1470   29.5740 C.ar   69  TRP69       0.0191
     77  CZ3       52.9970   18.7880   28.6570 C.ar   69  TRP69       0.0001
     78  CH2       54.3490   19.1270   28.7600 C.ar   69  TRP69       0.0015
     79  N         47.0980   17.0320   26.8230 N.3    72  LYS72      -0.1245
     80  CA        48.1240   16.4330   25.9580 C.3    72  LYS72       0.1561
     81  C         47.3990   15.6870   24.8560 C.2    72  LYS72       0.2260
     82  O         46.3380   15.0780   25.0510 O.2    72  LYS72      -0.2867
     83  CB        48.9900   15.4550   26.7370 C.3    72  LYS72       0.0271
     84  CG        49.7860   16.0520   27.9120 C.3    72  LYS72       0.0035
     85  CD        50.5580   14.9830   28.6690 C.3    72  LYS72       0.0206
     86  CE        51.5680   15.6240   29.6530 C.3    72  LYS72       0.1093
     87  NZ        52.2100   14.6440   30.5410 N.3    72  LYS72      -0.1314
     88  N         55.1780   10.2380   27.1690 N.3    77  ASP77      -0.1239
     89  CA        56.3700   10.8370   26.5850 C.3    77  ASP77       0.1674
     90  C         56.6560   10.0880   25.2390 C.2    77  ASP77       0.2266
     91  O         56.5240    8.8490   25.1290 O.2    77  ASP77      -0.2867
     92  CB        57.6070   10.7000   27.4730 C.3    77  ASP77       0.1410
     93  CG        57.5780   11.5720   28.6900 C.2    77  ASP77       0.3668
     94  OD1       56.6170   12.3470   28.8730 O.co2  77  ASP77      -0.2456
     95  OD2       58.5010   11.5290   29.5220 O.co2  77  ASP77      -0.2456
@<TRIPOS>BOND
     1    59    60    2
     2    59    58    1
     3    57    58    1
     4     1     2    1
     5    58    61    1
     6     4     3    2
     7     3     2    1
     8     2     5    1
     9    81    82    2
    10    81    80    1
    11    18    17    2
    12    15    16    1
    13    91    90    2
    14    90    89    1
    15    17    16    1
    16    61    63    1
    17    61    62    1
    18    80    83    1
    19    80    79    1
    20     5     6    1
    21    16    19    1
    22    62    64    1
    23    27    25   ar
    24    27    28   ar
    25    89    88    1
    26    89    92    1
    27    25    22   ar
    28    83    84    1
    29    28    26   ar
    30    22    20   ar
    31    22    24   ar
    32     6     7   ar
    33     6     8   ar
    34    26    24   ar
    35    19    20    1
    36    92    93    1
    37    20    21   ar
    38    24    23   ar
    39     7     9   ar
    40    84    85    1
    41    11     8   ar
    42    11    13   ar
    43     8    10   ar
    44    21    23   ar
    45    55    54    1
    46    55    56    2
    47    54    53    1
    48    77    78   ar
    49    77    75   ar
    50    85    86    1
    51    93    94   ar
    52    93    95   ar
    53    78    76   ar
    54     9    10   ar
    55    13    14   ar
    56    10    12   ar
    57    43    41   am
    58    29    30    1
    59    75    72   ar
    60    41    42    2
    61    41    40    1
    62    30    31    1
    63    30    33    1
    64    47    46    2
    65    76    74   ar
    66    65    66    1
    67    53    46   am
    68    40    39    1
    69    86    87    1
    70    39    36    1
    71    38    37    2
    72    35    31   am
    73    35    36    1
    74    46    45    1
    75    14    12   ar
    76    66    67    1
    77    66    69    1
    78    31    32    2
    79    72    74   ar
    80    72    70   ar
    81    34    33    1
    82    74    73   ar
    83    67    68    2
    84    36    37    1
    85    37    44   am
    86    70    69    1
    87    70    71   ar
    88    73    71   ar
    89    45    44    1
    90    45    48    1
    91    48    49    1
    92    51    50   ar
    93    49    50    1
    94    50    52   ar
