@<TRIPOS>MOLECULE
tmp/2j73A00.pdb
 95 94 0 0 0
SMALL
GASTEIGER

@<TRIPOS>ATOM
      1  N         39.6340    2.5560    1.7510 N.3    23  TRP23      -0.1241
      2  CA        38.7620    2.4400    0.5820 C.3    23  TRP23       0.1605
      3  C         37.6930    1.3950    0.9510 C.2    23  TRP23       0.2264
      4  O         38.0140    0.2110    1.1520 O.2    23  TRP23      -0.2867
      5  CB        39.5110    1.9710   -0.6180 C.3    23  TRP23       0.0550
      6  CG        38.6840    1.9770   -1.9140 C.ar   23  TRP23       0.0003
      7  CD1       38.1110    0.9150   -2.5180 C.ar   23  TRP23       0.0946
      8  CD2       38.4050    3.1020   -2.7290 C.ar   23  TRP23       0.0152
      9  NE1       37.4610    1.3050   -3.6530 N.ar   23  TRP23      -0.2442
     10  CE2       37.6150    2.6530   -3.8010 C.ar   23  TRP23       0.0810
     11  CE3       38.7340    4.4570   -2.6620 C.ar   23  TRP23       0.0012
     12  CZ2       37.1940    3.4950   -4.8240 C.ar   23  TRP23       0.0191
     13  CZ3       38.2910    5.3080   -3.6730 C.ar   23  TRP23       0.0001
     14  CH2       37.5060    4.8160   -4.7200 C.ar   23  TRP23       0.0015
     15  N         33.6470   -0.0910    0.1560 N.3    25  TRP25      -0.1241
     16  CA        32.5520   -0.1560   -0.8060 C.3    25  TRP25       0.1605
     17  C         31.4090   -1.0280   -0.2760 C.2    25  TRP25       0.2264
     18  O         31.6150   -2.0660    0.3190 O.2    25  TRP25      -0.2867
     19  CB        33.0540   -0.6640   -2.1690 C.3    25  TRP25       0.0550
     20  CG        33.5750   -2.0800   -2.2630 C.ar   25  TRP25       0.0003
     21  CD1       32.9380   -3.1230   -2.8040 C.ar   25  TRP25       0.0946
     22  CD2       34.8920   -2.5230   -1.9600 C.ar   25  TRP25       0.0152
     23  NE1       33.7290   -4.2370   -2.7790 N.ar   25  TRP25      -0.2442
     24  CE2       34.9590   -3.8850   -2.2770 C.ar   25  TRP25       0.0810
     25  CE3       35.9890   -1.9310   -1.3750 C.ar   25  TRP25       0.0012
     26  CZ2       36.0980   -4.6580   -2.0620 C.ar   25  TRP25       0.0191
     27  CZ3       37.1390   -2.6920   -1.1650 C.ar   25  TRP25       0.0001
     28  CH2       37.1920   -4.0450   -1.5030 C.ar   25  TRP25       0.0015
     29  N         25.3370   -3.5060   -3.8490 N.3    31  SER31      -0.1202
     30  CA        26.7450   -3.2160   -4.1060 C.3    31  SER31       0.2020
     31  C         26.9060   -1.8880   -4.8510 C.2    31  SER31       0.2619
     32  O         26.0510   -1.4600   -5.6370 O.2    31  SER31      -0.2717
     33  CB        27.3680   -4.3440   -4.9080 C.3    31  SER31       0.2103
     34  OG        26.7040   -4.4520   -6.1590 O.3    31  SER31      -0.2182
     35  N         28.0070   -1.2080   -4.5560 N.am   32  GLN32      -0.1965
     36  CA        28.2980    0.0820   -5.1350 C.3    32  GLN32       0.1733
     37  C         29.8000    0.1710   -5.2680 C.2    32  GLN32       0.2616
     38  O         30.5240   -0.5460   -4.5930 O.2    32  GLN32      -0.2715
     39  CB        27.7660    1.2100   -4.2350 C.3    32  GLN32       0.0408
     40  CG        26.2710    1.4740   -4.2310 C.3    32  GLN32       0.0908
     41  CD        25.9640    2.9910   -4.1070 C.2    32  GLN32       0.2608
     42  OE1       24.9800    3.4670   -4.6690 O.2    32  GLN32      -0.2717
     43  NE2       26.8390    3.7420   -3.4240 N.am   32  GLN32      -0.0878
     44  N         30.2770    1.0540   -6.1340 N.am   33  GLU33      -0.1963
     45  CA        31.6980    1.4250   -6.1320 C.3    33  GLU33       0.1733
     46  C         32.0410    2.0630   -4.7790 C.2    33  GLU33       0.2616
     47  O         31.1700    2.5920   -4.0670 O.2    33  GLU33      -0.2715
     48  CB        31.9730    2.3940   -7.3150 C.3    33  GLU33       0.0429
     49  CG        33.3870    2.9880   -7.4630 C.3    33  GLU33       0.1163
     50  CD        34.5050    2.0170   -7.9240 C.2    33  GLU33       0.3649
     51  OE1       34.2560    0.8780   -8.4120 O.co2  33  GLU33      -0.2457
     52  OE2       35.6870    2.4370   -7.8110 O.co2  33  GLU33      -0.2457
     53  N         33.3270    2.0270   -4.4650 N.am   34  GLY34      -0.1955
     54  CA        33.8650    2.4820   -3.2030 C.3    34  GLY34       0.1869
     55  C         34.1620    3.9580   -3.2060 C.2    34  GLY34       0.2309
     56  O         34.0020    4.6670   -4.2410 O.2    34  GLY34      -0.2863
     57  N         39.8130   -1.8600    1.7540 N.3    63  ILE63      -0.1245
     58  CA        41.2520   -1.9390    1.5340 C.3    63  ILE63       0.1561
     59  C         41.8810   -0.7640    2.2310 C.2    63  ILE63       0.2260
     60  O         41.3770    0.3750    2.1790 O.2    63  ILE63      -0.2867
     61  CB        41.6070   -1.9050    0.0380 C.3    63  ILE63       0.0252
     62  CG1       40.9380   -3.0290   -0.7370 C.3    63  ILE63       0.0019
     63  CG2       43.1400   -2.0210   -0.1610 C.3    63  ILE63       0.0019
     64  CD1       40.7970   -2.7500   -2.2240 C.3    63  ILE63       0.0001
     65  N         46.0590    5.1990   -3.8840 N.3    69  TRP69      -0.1241
     66  CA        46.6250    3.9510   -4.3000 C.3    69  TRP69       0.1605
     67  C         48.1280    3.9580   -4.5320 C.2    69  TRP69       0.2264
     68  O         48.6260    3.1950   -5.3540 O.2    69  TRP69      -0.2867
     69  CB        45.9160    3.4530   -5.5850 C.3    69  TRP69       0.0550
     70  CG        44.4350    3.2810   -5.4580 C.ar   69  TRP69       0.0003
     71  CD1       43.4840    3.9430   -6.1530 C.ar   69  TRP69       0.0946
     72  CD2       43.7390    2.3980   -4.5770 C.ar   69  TRP69       0.0152
     73  NE1       42.2330    3.5470   -5.7630 N.ar   69  TRP69      -0.2442
     74  CE2       42.3530    2.5820   -4.8110 C.ar   69  TRP69       0.0810
     75  CE3       44.1380    1.4590   -3.6250 C.ar   69  TRP69       0.0012
     76  CZ2       41.3820    1.8810   -4.1360 C.ar   69  TRP69       0.0191
     77  CZ3       43.1520    0.7550   -2.9600 C.ar   69  TRP69       0.0001
     78  CH2       41.8040    1.0040   -3.1800 C.ar   69  TRP69       0.0015
     79  N         49.0610   -0.5210   -1.0750 N.3    72  LYS72      -0.1245
     80  CA        48.0260   -1.1880   -0.2730 C.3    72  LYS72       0.1561
     81  C         48.7320   -1.8790    0.8910 C.2    72  LYS72       0.2260
     82  O         49.8030   -2.4740    0.7280 O.2    72  LYS72      -0.2867
     83  CB        47.3060   -2.2660   -1.0980 C.3    72  LYS72       0.0271
     84  CG        46.4750   -1.7330   -2.2490 C.3    72  LYS72       0.0035
     85  CD        45.7940   -2.8560   -3.0240 C.3    72  LYS72       0.0206
     86  CE        44.9010   -2.3350   -4.1320 C.3    72  LYS72       0.1093
     87  NZ        44.2170   -3.4190   -4.9510 N.3    72  LYS72      -0.1314
     88  N         41.2460   -7.8980   -1.5860 N.3    77  ASP77      -0.1239
     89  CA        40.0030   -7.3760   -1.0680 C.3    77  ASP77       0.1674
     90  C         39.7050   -8.0850    0.2270 C.2    77  ASP77       0.2266
     91  O         39.9350   -9.2880    0.3530 O.2    77  ASP77      -0.2867
     92  CB        38.8710   -7.6770   -2.0340 C.3    77  ASP77       0.1410
     93  CG        38.8790   -6.8020   -3.2660 C.2    77  ASP77       0.3668
     94  OD1       39.7360   -5.9130   -3.4430 O.co2  77  ASP77      -0.2456
     95  OD2       37.9420   -6.9290   -4.0850 O.co2  77  ASP77      -0.2456
@<TRIPOS>BOND
     1    51    50   ar
     2    50    52   ar
     3    50    49    1
     4    49    48    1
     5    48    45    1
     6    34    33    1
     7    71    73   ar
     8    71    70   ar
     9    44    45    1
    10    44    37   am
    11    45    46    1
    12    73    74   ar
    13    32    31    2
    14    69    70    1
    15    69    66    1
    16    70    72   ar
    17    68    67    2
    18    37    36    1
    19    37    38    2
    20    36    35    1
    21    36    39    1
    22    87    86    1
    23    33    30    1
    24    31    35   am
    25    31    30    1
    26    12    14   ar
    27    12    10   ar
    28    74    72   ar
    29    74    76   ar
    30    46    53   am
    31    46    47    2
    32    14    13   ar
    33    42    41    2
    34    72    75   ar
    35    67    66    1
    36    53    54    1
    37    66    65    1
    38    56    55    2
    39    39    40    1
    40    40    41    1
    41    76    78   ar
    42    86    85    1
    43    41    43   am
    44    30    29    1
    45    95    93   ar
    46    10     9   ar
    47    10     8   ar
    48    13    11   ar
    49     9     7   ar
    50    75    77   ar
    51    94    93   ar
    52    93    92    1
    53    55    54    1
    54    78    77   ar
    55    85    84    1
    56    21    23   ar
    57    21    20   ar
    58    23    24   ar
    59     8    11   ar
    60     8     6   ar
    61     7     6   ar
    62    24    26   ar
    63    24    22   ar
    64    20    19    1
    65    20    22   ar
    66    84    83    1
    67    64    62    1
    68    19    16    1
    69    26    28   ar
    70    92    89    1
    71    22    25   ar
    72     6     5    1
    73    88    89    1
    74    28    27   ar
    75    25    27   ar
    76    83    80    1
    77    79    80    1
    78    89    90    1
    79    16    17    1
    80    16    15    1
    81    62    61    1
    82     5     2    1
    83    17    18    2
    84    80    81    1
    85    63    61    1
    86    61    58    1
    87    90    91    2
    88     2     3    1
    89     2     1    1
    90    82    81    2
    91     3     4    2
    92    58    57    1
    93    58    59    1
    94    60    59    2
