@<TRIPOS>MOLECULE
tmp/2j73B00.pdb
 95 94 0 0 0
SMALL
GASTEIGER

@<TRIPOS>ATOM
      1  N         58.6490  -19.0480   26.7950 N.3    22  TRP22      -0.1241
      2  CA        58.7370  -20.4230   27.3090 C.3    22  TRP22       0.1605
      3  C         58.5780  -21.3600   26.1380 C.2    22  TRP22       0.2264
      4  O         57.5100  -21.3660   25.5100 O.2    22  TRP22      -0.2867
      5  CB        57.6300  -20.6560   28.3490 C.3    22  TRP22       0.0550
      6  CG        57.7470  -21.9540   29.0510 C.ar   22  TRP22       0.0003
      7  CD1       57.0880  -23.0930   28.7790 C.ar   22  TRP22       0.0946
      8  CD2       58.6340  -22.2430   30.1110 C.ar   22  TRP22       0.0152
      9  NE1       57.5330  -24.1020   29.5940 N.ar   22  TRP22      -0.2442
     10  CE2       58.4580  -23.5790   30.4500 C.ar   22  TRP22       0.0810
     11  CE3       59.5800  -21.4900   30.8200 C.ar   22  TRP22       0.0012
     12  CZ2       59.1800  -24.1750   31.4450 C.ar   22  TRP22       0.0191
     13  CZ3       60.2460  -22.0520   31.8100 C.ar   22  TRP22       0.0001
     14  CH2       60.0730  -23.4070   32.1070 C.ar   22  TRP22       0.0015
     15  N         59.3210  -25.3400   24.5480 N.3    24  TRP24      -0.1241
     16  CA        59.5460  -26.7540   24.8770 C.3    24  TRP24       0.1605
     17  C         59.4990  -27.6230   23.6010 C.2    24  TRP24       0.2264
     18  O         58.7100  -27.3670   22.6830 O.2    24  TRP24      -0.2867
     19  CB        58.5570  -27.2430   25.9320 C.3    24  TRP24       0.0550
     20  CG        57.1170  -27.3600   25.5250 C.ar   24  TRP24       0.0003
     21  CD1       56.4580  -28.5250   25.1220 C.ar   24  TRP24       0.0946
     22  CD2       56.1330  -26.3150   25.4660 C.ar   24  TRP24       0.0152
     23  NE1       55.1290  -28.2510   24.8880 N.ar   24  TRP24      -0.2442
     24  CE2       54.9140  -26.8990   25.0340 C.ar   24  TRP24       0.0810
     25  CE3       56.1590  -24.9300   25.7030 C.ar   24  TRP24       0.0012
     26  CZ2       53.7330  -26.1590   24.8910 C.ar   24  TRP24       0.0191
     27  CZ3       54.9940  -24.2060   25.5550 C.ar   24  TRP24       0.0001
     28  CH2       53.8060  -24.8180   25.1540 C.ar   24  TRP24       0.0015
     29  N         58.8920  -34.8250   23.4550 N.3    30  SER30      -0.1202
     30  CA        58.3050  -33.8010   24.2910 C.3    30  SER30       0.2020
     31  C         59.1130  -33.8290   25.5770 C.2    30  SER30       0.2619
     32  O         59.3750  -34.9130   26.1030 O.2    30  SER30      -0.2717
     33  CB        56.8320  -34.1350   24.5710 C.3    30  SER30       0.2103
     34  OG        56.2680  -33.2170   25.5300 O.3    30  SER30      -0.2182
     35  N         59.5660  -32.6460   26.0180 N.am   31  GLN31      -0.1965
     36  CA        60.2730  -32.4570   27.2960 C.3    31  GLN31       0.1733
     37  C         59.7710  -31.1600   27.9210 C.2    31  GLN31       0.2616
     38  O         59.2180  -30.2740   27.2350 O.2    31  GLN31      -0.2715
     39  CB        61.7640  -32.3010   27.0510 C.3    31  GLN31       0.0408
     40  CG        62.3260  -33.3080   26.0560 C.3    31  GLN31       0.0908
     41  CD        63.6350  -33.8200   26.4070 C.2    31  GLN31       0.2608
     42  OE1       63.8460  -35.0240   26.3200 O.2    31  GLN31      -0.2717
     43  NE2       64.5480  -32.9450   26.8150 N.am   31  GLN31      -0.0878
     44  N         59.9160  -31.0690   29.2300 N.am   32  GLU32      -0.1963
     45  CA        59.7480  -29.7630   29.9140 C.3    32  GLU32       0.1733
     46  C         60.5860  -28.6600   29.2410 C.2    32  GLU32       0.2616
     47  O         61.7020  -28.8650   28.7450 O.2    32  GLU32      -0.2715
     48  CB        60.0410  -29.9030   31.4340 C.3    32  GLU32       0.0429
     49  CG        59.9280  -28.6140   32.2580 C.3    32  GLU32       0.1163
     50  CD        58.5060  -28.1260   32.7030 C.2    32  GLU32       0.3649
     51  OE1       57.4040  -28.6100   32.2280 O.co2  32  GLU32      -0.2457
     52  OE2       58.5050  -27.1860   33.5770 O.co2  32  GLU32      -0.2457
     53  N         60.0500  -27.4510   29.2210 N.am   33  GLY33      -0.1955
     54  CA        60.6460  -26.3300   28.5170 C.3    33  GLY33       0.1869
     55  C         61.6150  -25.5310   29.3600 C.2    33  GLY33       0.2309
     56  O         62.0030  -25.9500   30.4550 O.2    33  GLY33      -0.2863
     57  N         55.0010  -20.2630   24.6030 N.3    62  ILE62      -0.1245
     58  CA        54.1040  -19.3170   25.2740 C.3    62  ILE62       0.1561
     59  C         54.9210  -18.0540   25.5050 C.2    62  ILE62       0.2260
     60  O         56.0660  -18.1220   25.9320 O.2    62  ILE62      -0.2867
     61  CB        53.5770  -19.8150   26.6240 C.3    62  ILE62       0.0252
     62  CG1       52.8070  -21.0910   26.4620 C.3    62  ILE62       0.0019
     63  CG2       52.6920  -18.7690   27.3210 C.3    62  ILE62       0.0019
     64  CD1       52.8180  -21.9060   27.7380 C.3    62  ILE62       0.0001
     65  N         55.7130  -16.2030   34.8650 N.3    68  TRP68      -0.1241
     66  CA        54.3050  -16.4660   34.7500 C.3    68  TRP68       0.1605
     67  C         53.4190  -15.4450   35.4300 C.2    68  TRP68       0.2264
     68  O         52.3040  -15.7860   35.8740 O.2    68  TRP68      -0.2867
     69  CB        53.9700  -17.8880   35.2750 C.3    68  TRP68       0.0550
     70  CG        54.7550  -18.9770   34.6090 C.ar   68  TRP68       0.0003
     71  CD1       55.6500  -19.8370   35.2010 C.ar   68  TRP68       0.0946
     72  CD2       54.6620  -19.3680   33.2350 C.ar   68  TRP68       0.0152
     73  NE1       56.1340  -20.7140   34.2650 N.ar   68  TRP68      -0.2442
     74  CE2       55.5720  -20.4230   33.0390 C.ar   68  TRP68       0.0810
     75  CE3       53.9630  -18.8710   32.1150 C.ar   68  TRP68       0.0012
     76  CZ2       55.7660  -21.0350   31.7900 C.ar   68  TRP68       0.0191
     77  CZ3       54.1230  -19.4900   30.9100 C.ar   68  TRP68       0.0001
     78  CH2       55.0510  -20.5610   30.7460 C.ar   68  TRP68       0.0015
     79  N         50.4030  -14.4020   30.6510 N.3    71  LYS71      -0.1245
     80  CA        50.6470  -14.9770   29.3160 C.3    71  LYS71       0.1561
     81  C         49.9640  -14.0960   28.2910 C.2    71  LYS71       0.2260
     82  O         48.7720  -13.7470   28.4470 O.2    71  LYS71      -0.2867
     83  CB        50.0530  -16.3640   29.1980 C.3    71  LYS71       0.0271
     84  CG        50.6610  -17.4230   30.1240 C.3    71  LYS71       0.0035
     85  CD        49.9000  -18.7520   29.9970 C.3    71  LYS71       0.0206
     86  CE        50.4430  -19.7770   30.9000 C.3    71  LYS71       0.1093
     87  NZ        49.7020  -21.0770   30.8010 N.3    71  LYS71      -0.1314
     88  N         48.5680  -22.9500   24.8960 N.3    76  ASP76      -0.1239
     89  CA        49.7250  -23.4550   24.2000 C.3    76  ASP76       0.1674
     90  C         49.6460  -23.1810   22.7310 C.2    76  ASP76       0.2266
     91  O         48.5860  -23.4030   22.1380 O.2    76  ASP76      -0.2867
     92  CB        49.8710  -24.9550   24.4490 C.3    76  ASP76       0.1410
     93  CG        50.3220  -25.2880   25.8540 C.2    76  ASP76       0.3668
     94  OD1       50.5240  -24.3890   26.7200 O.co2  76  ASP76      -0.2456
     95  OD2       50.4480  -26.4800   26.1840 O.co2  76  ASP76      -0.2456
@<TRIPOS>BOND
     1    91    90    2
     2    18    17    2
     3    90    89    1
     4    29    30    1
     5    17    16    1
     6    89    92    1
     7    89    88    1
     8    30    33    1
     9    30    31    1
    10    92    93    1
    11    15    16    1
    12    33    34    1
    13    57    58    1
    14    16    19    1
    15    23    24   ar
    16    23    21   ar
    17    26    24   ar
    18    26    28   ar
    19    24    22   ar
    20    21    20   ar
    21    28    27   ar
    22    58    59    1
    23    58    61    1
    24    22    20   ar
    25    22    25   ar
    26    59    60    2
    27     4     3    2
    28    20    19    1
    29    27    25   ar
    30    31    35   am
    31    31    32    2
    32    93    95   ar
    33    93    94   ar
    34    35    36    1
    35    40    41    1
    36    40    39    1
    37     3     2    1
    38    42    41    2
    39    41    43   am
    40    62    61    1
    41    62    64    1
    42    61    63    1
    43     1     2    1
    44    39    36    1
    45    38    37    2
    46    36    37    1
    47     2     5    1
    48    37    44   am
    49    81    82    2
    50    81    80    1
    51     5     6    1
    52    54    53    1
    53    54    55    1
    54    47    46    2
    55     7     6   ar
    56     7     9   ar
    57     6     8   ar
    58    83    80    1
    59    83    84    1
    60    53    46   am
    61    44    45    1
    62    46    45    1
    63    80    79    1
    64    55    56    2
    65     9    10   ar
    66    45    48    1
    67    85    84    1
    68    85    86    1
    69     8    10   ar
    70     8    11   ar
    71    10    12   ar
    72    78    77   ar
    73    78    76   ar
    74    87    86    1
    75    11    13   ar
    76    77    75   ar
    77    48    49    1
    78    12    14   ar
    79    76    74   ar
    80    13    14   ar
    81    75    72   ar
    82    51    50   ar
    83    49    50    1
    84    50    52   ar
    85    74    72   ar
    86    74    73   ar
    87    72    70   ar
    88    73    71   ar
    89    70    71   ar
    90    70    69    1
    91    66    65    1
    92    66    69    1
    93    66    67    1
    94    67    68    2
