@<TRIPOS>MOLECULE
tmp/2j75A00.pdb
 133 135 0 0 0
SMALL
GASTEIGER

@<TRIPOS>ATOM
      1  N          2.7750   13.8190    0.8130 N.3    18  GLN18      -0.1245
      2  CA         1.4970   13.1540    0.5840 C.3    18  GLN18       0.1566
      3  C          0.7050   13.8050   -0.5520 C.2    18  GLN18       0.2260
      4  O         -0.0700   13.1160   -1.2210 O.2    18  GLN18      -0.2867
      5  CB         0.6820   13.1120    1.8780 C.3    18  GLN18       0.0367
      6  CG         1.4070   12.3510    2.9620 C.3    18  GLN18       0.0905
      7  CD         0.5680   12.1670    4.2040 C.2    18  GLN18       0.2608
      8  OE1        0.7740   12.8650    5.2060 O.2    18  GLN18      -0.2717
      9  NE2       -0.3640   11.2050    4.1620 N.am   18  GLN18      -0.0878
     10  N          7.6840   16.8300    8.3170 N.3   119  HIS119     -0.1226
     11  CA         6.6470   15.8260    8.2190 C.3   119  HIS119      0.1752
     12  C          7.1590   14.6530    7.3950 C.2   119  HIS119      0.2596
     13  O          6.4800   14.1940    6.4740 O.2   119  HIS119     -0.2718
     14  CB         5.3670   16.4320    7.6070 C.3   119  HIS119      0.0759
     15  CG         4.1070   15.6850    7.9610 C.ar  119  HIS119      0.0818
     16  ND1        2.9990   16.3130    8.5030 N.ar  119  HIS119     -0.2268
     17  CD2        3.7660   14.3810    7.8170 C.ar  119  HIS119      0.1154
     18  CE1        2.0250   15.4310    8.6480 C.ar  119  HIS119      0.1986
     19  NE2        2.4600   14.2500    8.2390 N.ar  119  HIS119     -0.2212
     20  N          8.4090   14.2310    7.7050 N.am  120  TRP120     -0.1976
     21  CA         8.9230   12.8700    7.4380 C.3   120  TRP120      0.1640
     22  C          9.7740   12.7110    6.1870 C.2   120  TRP120      0.2290
     23  O         10.4260   11.6730    6.0290 O.2   120  TRP120     -0.2864
     24  CB         7.8320   11.7880    7.4120 C.3   120  TRP120      0.0576
     25  CG         6.9100   11.7110    8.6140 C.ar  120  TRP120      0.0006
     26  CD1        6.9850   12.4150    9.8030 C.ar  120  TRP120      0.0946
     27  CD2        5.8110   10.8300    8.7360 C.ar  120  TRP120      0.0152
     28  NE1        5.9480   12.0160   10.6570 N.ar  120  TRP120     -0.2442
     29  CE2        5.2210   11.0420   10.0150 C.ar  120  TRP120      0.0810
     30  CE3        5.2400    9.8780    7.8740 C.ar  120  TRP120      0.0012
     31  CZ2        4.0830   10.3310   10.4410 C.ar  120  TRP120      0.0191
     32  CZ3        4.1370    9.1600    8.2980 C.ar  120  TRP120      0.0001
     33  CH2        3.5560    9.3900    9.5740 C.ar  120  TRP120      0.0015
     34  N          6.3120   16.5380   13.1780 N.3   163  ASN163     -0.1225
     35  CA         5.0440   15.7990   13.1660 C.3   163  ASN163      0.1785
     36  C          5.2810   14.3780   13.6330 C.2   163  ASN163      0.2597
     37  O          6.0210   13.6510   13.0000 O.2   163  ASN163     -0.2718
     38  CB         4.4690   15.7080   11.7520 C.3   163  ASN163      0.1169
     39  CG         3.1950   14.9020   11.7250 C.2   163  ASN163      0.2627
     40  OD1        2.1620   15.3730   12.1860 O.2   163  ASN163     -0.2716
     41  ND2        3.2740   13.6650   11.2520 N.am  163  ASN163     -0.0877
     42  N          4.6440   13.9720   14.7320 N.am  164  GLU164     -0.1979
     43  CA         4.6080   12.5560   15.1460 C.3   164  GLU164      0.1602
     44  C          5.9980   11.9230   15.2640 C.2   164  GLU164      0.2287
     45  O          6.2760   10.9090   14.6050 O.2   164  GLU164     -0.2864
     46  CB         3.7120   11.7190   14.2340 C.3   164  GLU164      0.0415
     47  CG         2.2510   12.2620   14.1810 C.3   164  GLU164      0.1163
     48  CD         1.2980   11.3440   13.4440 C.2   164  GLU164      0.3649
     49  OE1        1.7580   10.3780   12.7880 O.co2 164  GLU164     -0.2457
     50  OE2        0.0570   11.5550   13.5690 O.co2 164  GLU164     -0.2457
     51  N         -6.9380    9.7720   16.2270 N.3   290  TYR290     -0.1241
     52  CA        -7.8000    9.0240   15.3030 C.3   290  TYR290      0.1605
     53  C         -8.5720    7.8800   15.9700 C.2   290  TYR290      0.2264
     54  O         -9.7250    7.6080   15.6200 O.2   290  TYR290     -0.2867
     55  CB        -6.9530    8.3880   14.1730 C.3   290  TYR290      0.0534
     56  CG        -6.3480    9.4140   13.2650 C.ar  290  TYR290     -0.0201
     57  CD1       -5.1240   10.0080   13.5620 C.ar  290  TYR290     -0.0009
     58  CD2       -7.0320    9.8290   12.1330 C.ar  290  TYR290     -0.0009
     59  CE1       -4.5830   10.9970   12.7310 C.ar  290  TYR290      0.0417
     60  CE2       -6.5100   10.7840   11.2950 C.ar  290  TYR290      0.0417
     61  CZ        -5.2850   11.3640   11.5960 C.ar  290  TYR290      0.1957
     62  OH        -4.8070   12.2920   10.7380 O.3   290  TYR290     -0.2866
     63  N         -9.3320    1.0300   11.9900 N.3   317  TRP317     -0.1241
     64  CA        -9.1940    1.7260   13.2740 C.3   317  TRP317      0.1605
     65  C        -10.5630    1.8810   13.9550 C.2   317  TRP317      0.2264
     66  O        -11.5010    2.4250   13.3620 O.2   317  TRP317     -0.2867
     67  CB        -8.5640    3.1160   13.0890 C.3   317  TRP317      0.0550
     68  CG        -7.1680    3.1140   12.5110 C.ar  317  TRP317      0.0003
     69  CD1       -6.3280    2.0460   12.4210 C.ar  317  TRP317      0.0946
     70  CD2       -6.4520    4.2360   11.9640 C.ar  317  TRP317      0.0152
     71  NE1       -5.1540    2.4160   11.8250 N.ar  317  TRP317     -0.2442
     72  CE2       -5.1920    3.7600   11.5550 C.ar  317  TRP317      0.0810
     73  CE3       -6.7560    5.6010   11.7840 C.ar  317  TRP317      0.0012
     74  CZ2       -4.2250    4.5900   10.9570 C.ar  317  TRP317      0.0191
     75  CZ3       -5.8010    6.4290   11.1900 C.ar  317  TRP317      0.0001
     76  CH2       -4.5540    5.9240   10.7830 C.ar  317  TRP317      0.0015
     77  N         -4.5290   17.1890   13.9600 N.3   344  GLU344     -0.1245
     78  CA        -5.1200   16.2470   13.0220 C.3   344  GLU344      0.1567
     79  C         -6.2160   15.4590   13.7160 C.2   344  GLU344      0.2260
     80  O         -6.0380   15.0350   14.8550 O.2   344  GLU344     -0.2867
     81  CB        -4.1170   15.2010   12.5420 C.3   344  GLU344      0.0388
     82  CG        -3.0020   15.7220   11.6410 C.3   344  GLU344      0.1160
     83  CD        -2.0540   14.6320   11.1610 C.2   344  GLU344      0.3649
     84  OE1       -2.4680   13.4610   11.0440 O.co2 344  GLU344     -0.2457
     85  OE2       -0.8920   14.9670   10.8680 O.co2 344  GLU344     -0.2457
     86  N         -7.7640   16.2710    9.2470 N.3   391  TRP391     -0.1241
     87  CA        -6.9020   15.5390    8.3200 C.3   391  TRP391      0.1605
     88  C         -7.8560   14.7680    7.4180 C.2   391  TRP391      0.2264
     89  O         -8.6070   13.9080    7.9150 O.2   391  TRP391     -0.2867
     90  CB        -5.9870   14.5360    9.0500 C.3   391  TRP391      0.0550
     91  CG        -5.0650   13.8750    8.0250 C.ar  391  TRP391      0.0003
     92  CD1       -5.2840   12.7320    7.3530 C.ar  391  TRP391      0.0946
     93  CD2       -3.8340   14.4100    7.5440 C.ar  391  TRP391      0.0152
     94  NE1       -4.2580   12.4990    6.4390 N.ar  391  TRP391     -0.2442
     95  CE2       -3.3460   13.5230    6.5500 C.ar  391  TRP391      0.0810
     96  CE3       -3.0870   15.5560    7.8590 C.ar  391  TRP391      0.0012
     97  CZ2       -2.1240   13.7370    5.8630 C.ar  391  TRP391      0.0191
     98  CZ3       -1.8620   15.7650    7.1880 C.ar  391  TRP391      0.0001
     99  CH2       -1.4000   14.8590    6.1970 C.ar  391  TRP391      0.0015
    100  N         -1.1970    7.9000    1.3380 N.3   398  GLU398     -0.1231
    101  CA        -1.2420    7.5330    2.7420 C.3   398  GLU398      0.1699
    102  C         -0.0700    6.5880    3.0320 C.2   398  GLU398      0.2592
    103  O         -0.2690    5.4260    3.3570 O.2   398  GLU398     -0.2718
    104  CB        -2.6070    6.8990    3.0650 C.3   398  GLU398      0.0402
    105  CG        -2.7660    6.3640    4.5040 C.3   398  GLU398      0.1161
    106  CD        -2.3770    7.3480    5.5960 C.2   398  GLU398      0.3649
    107  OE1       -2.6640    8.5690    5.4730 O.co2 398  GLU398     -0.2457
    108  OE2       -1.8120    6.8730    6.6270 O.co2 398  GLU398     -0.2457
    109  N          1.1570    7.0910    2.8510 N.am  399  TRP399     -0.1976
    110  CA         2.3680    6.3710    3.2940 C.3   399  TRP399      0.1640
    111  C          2.4130    4.9220    2.7570 C.2   399  TRP399      0.2290
    112  O          2.1940    4.7290    1.5760 O.2   399  TRP399     -0.2864
    113  CB         2.5240    6.5000    4.8230 C.3   399  TRP399      0.0576
    114  CG         2.4920    7.9550    5.2600 C.ar  399  TRP399      0.0006
    115  CD1        1.5690    8.5490    6.0940 C.ar  399  TRP399      0.0946
    116  CD2        3.3860    9.0010    4.8410 C.ar  399  TRP399      0.0152
    117  NE1        1.8530    9.8940    6.2240 N.ar  399  TRP399     -0.2442
    118  CE2        2.9610   10.1940    5.4700 C.ar  399  TRP399      0.0810
    119  CE3        4.5070    9.0430    3.9840 C.ar  399  TRP399      0.0012
    120  CZ2        3.6210   11.4310    5.2850 C.ar  399  TRP399      0.0191
    121  CZ3        5.1850   10.2580    3.8190 C.ar  399  TRP399      0.0001
    122  CH2        4.7290   11.4450    4.4600 C.ar  399  TRP399      0.0015
    123  N         -8.5410   10.0210    3.0170 N.3   407  PHE407     -0.1241
    124  CA        -8.8300   10.7970    4.2290 C.3   407  PHE407      0.1605
    125  C         -9.3740   12.2140    3.9380 C.2   407  PHE407      0.2264
    126  O         -9.6150   12.9830    4.8680 O.2   407  PHE407     -0.2867
    127  CB        -7.5380   10.9880    5.0550 C.3   407  PHE407      0.0534
    128  CG        -7.2180    9.8680    5.9940 C.ar  407  PHE407     -0.0203
    129  CD1       -6.3710    8.8250    5.6130 C.ar  407  PHE407     -0.0042
    130  CD2       -7.7280    9.8640    7.2840 C.ar  407  PHE407     -0.0042
    131  CE1       -6.0430    7.8030    6.5230 C.ar  407  PHE407     -0.0003
    132  CE2       -7.4220    8.8410    8.1780 C.ar  407  PHE407     -0.0003
    133  CZ        -6.5720    7.8140    7.7990 C.ar  407  PHE407     -0.0000
@<TRIPOS>BOND
     1     4     3    2
     2     3     2    1
     3     2     1    1
     4     2     5    1
     5   100   101    1
     6   112   111    2
     7     5     6    1
     8   101   102    1
     9   101   104    1
    10   111   110    1
    11   109   102   am
    12   109   110    1
    13     6     7    1
    14   123   124    1
    15   102   103    2
    16   104   105    1
    17   110   113    1
    18   121   119   ar
    19   121   122   ar
    20   125   124    1
    21   125   126    2
    22   119   116   ar
    23     9     7   am
    24     7     8    2
    25   124   127    1
    26   122   120   ar
    27   105   106    1
    28   113   114    1
    29   116   114   ar
    30   116   118   ar
    31   127   128    1
    32   114   115   ar
    33   120   118   ar
    34   118   117   ar
    35   107   106   ar
    36   106   108   ar
    37   129   128   ar
    38   129   131   ar
    39    97    99   ar
    40    97    95   ar
    41   128   130   ar
    42    23    22    2
    43   115   117   ar
    44    22    21    1
    45    99    98   ar
    46    94    95   ar
    47    94    92   ar
    48    13    12    2
    49   131   133   ar
    50    95    93   ar
    51    98    96   ar
    52   130   132   ar
    53    92    91   ar
    54    12    20   am
    55    12    11    1
    56    24    21    1
    57    24    25    1
    58    88    89    2
    59    88    87    1
    60    21    20    1
    61    93    96   ar
    62    93    91   ar
    63    14    15    1
    64    14    11    1
    65   133   132   ar
    66    17    15   ar
    67    17    19   ar
    68    30    32   ar
    69    30    27   ar
    70    15    16   ar
    71    91    90    1
    72    11    10    1
    73    19    18   ar
    74    32    33   ar
    75    87    90    1
    76    87    86    1
    77    16    18   ar
    78    25    27   ar
    79    25    26   ar
    80    27    29   ar
    81    33    31   ar
    82    26    28   ar
    83    29    31   ar
    84    29    28   ar
    85    62    61    1
    86    76    74   ar
    87    76    75   ar
    88    85    83   ar
    89    74    72   ar
    90    84    83   ar
    91    83    82    1
    92    75    73   ar
    93    41    39   am
    94    60    61   ar
    95    60    58   ar
    96    72    71   ar
    97    72    70   ar
    98    61    59   ar
    99    82    81    1
   100    39    38    1
   101    39    40    2
   102    38    35    1
   103    73    70   ar
   104    71    69   ar
   105    70    68   ar
   106    63    64    1
   107    58    56   ar
   108    69    68   ar
   109    68    67    1
   110    81    78    1
   111    59    57   ar
   112    49    48   ar
   113    37    36    2
   114    78    79    1
   115    78    77    1
   116    67    64    1
   117    35    34    1
   118    35    36    1
   119    56    57   ar
   120    56    55    1
   121    64    65    1
   122    66    65    2
   123    48    50   ar
   124    48    47    1
   125    36    42   am
   126    79    80    2
   127    55    52    1
   128    47    46    1
   129    46    43    1
   130    45    44    2
   131    42    43    1
   132    43    44    1
   133    52    53    1
   134    52    51    1
   135    54    53    2
