@<TRIPOS>MOLECULE
tmp/2j78A00.pdb
 149 149 0 0 0
SMALL
GASTEIGER

@<TRIPOS>ATOM
      1  N          4.1070   14.3080    0.3870 N.3    18  GLN18      -0.1245
      2  CA         2.8140   13.6880    0.1250 C.3    18  GLN18       0.1566
      3  C          2.0570   14.3450   -1.0120 C.2    18  GLN18       0.2260
      4  O          1.2620   13.6780   -1.6430 O.2    18  GLN18      -0.2867
      5  CB         1.9780   13.6510    1.4010 C.3    18  GLN18       0.0367
      6  CG         2.7170   12.8570    2.5090 C.3    18  GLN18       0.0905
      7  CD         1.8630   12.7120    3.7340 C.2    18  GLN18       0.2608
      8  OE1        1.9780   13.5150    4.6850 O.2    18  GLN18      -0.2717
      9  NE2        0.9570   11.7240    3.7070 N.am   18  GLN18      -0.0878
     10  N          8.8680   17.2370    7.9580 N.3   119  HIS119     -0.1226
     11  CA         7.8030   16.2250    7.8970 C.3   119  HIS119      0.1752
     12  C          8.2690   15.0340    7.0650 C.2   119  HIS119      0.2596
     13  O          7.6150   14.6060    6.1160 O.2   119  HIS119     -0.2718
     14  CB         6.5280   16.8710    7.3550 C.3   119  HIS119      0.0759
     15  CG         5.2710   16.1300    7.6860 C.ar  119  HIS119      0.0818
     16  ND1        4.1550   16.7780    8.1750 N.ar  119  HIS119     -0.2268
     17  CD2        4.9090   14.8380    7.4790 C.ar  119  HIS119      0.1154
     18  CE1        3.1670   15.8990    8.2980 C.ar  119  HIS119      0.1986
     19  NE2        3.6040   14.7170    7.8900 N.ar  119  HIS119     -0.2212
     20  N          9.4470   14.5440    7.4770 N.am  120  TRP120     -0.1976
     21  CA         9.9650   13.1670    7.2250 C.3   120  TRP120      0.1640
     22  C         10.8490   13.0070    5.9960 C.2   120  TRP120      0.2290
     23  O         11.4820   11.9590    5.8280 O.2   120  TRP120     -0.2864
     24  CB         8.8380   12.1260    7.1950 C.3   120  TRP120      0.0576
     25  CG         7.9440   12.1160    8.3810 C.ar  120  TRP120      0.0006
     26  CD1        8.0700   12.8430    9.5360 C.ar  120  TRP120      0.0946
     27  CD2        6.7840   11.2940    8.5400 C.ar  120  TRP120      0.0152
     28  NE1        7.0320   12.5290   10.3990 N.ar  120  TRP120     -0.2442
     29  CE2        6.2350   11.5800    9.8040 C.ar  120  TRP120      0.0810
     30  CE3        6.1480   10.3430    7.7180 C.ar  120  TRP120      0.0012
     31  CZ2        5.0870   10.9390   10.2810 C.ar  120  TRP120      0.0191
     32  CZ3        4.9950    9.7130    8.1960 C.ar  120  TRP120      0.0001
     33  CH2        4.4860   10.0130    9.4540 C.ar  120  TRP120      0.0015
     34  N          7.4750   17.0620   12.8430 N.3   163  ASN163     -0.1225
     35  CA         6.2300   16.3030   12.8460 C.3   163  ASN163      0.1785
     36  C          6.5200   14.9000   13.3900 C.2   163  ASN163      0.2597
     37  O          7.1960   14.0760   12.7420 O.2   163  ASN163     -0.2718
     38  CB         5.6460   16.1720   11.4130 C.3   163  ASN163      0.1169
     39  CG         4.3260   15.4500   11.4160 C.2   163  ASN163      0.2627
     40  OD1        3.3610   15.9790   11.9680 O.2   163  ASN163     -0.2716
     41  ND2        4.2840   14.2300   10.8490 N.am  163  ASN163     -0.0877
     42  N          5.9660   14.6050   14.5810 N.am  164  GLU164     -0.1979
     43  CA         5.9160   13.2230   15.1050 C.3   164  GLU164      0.1602
     44  C          7.3000   12.5460   15.2070 C.2   164  GLU164      0.2287
     45  O          7.5490   11.5280   14.5600 O.2   164  GLU164     -0.2864
     46  CB         4.9470   12.3410   14.3080 C.3   164  GLU164      0.0415
     47  CG         3.5440   12.9850   14.2240 C.3   164  GLU164      0.1163
     48  CD         2.5240   12.0730   13.6080 C.2   164  GLU164      0.3649
     49  OE1        2.8720   11.2510   12.7240 O.co2 164  GLU164     -0.2457
     50  OE2        1.3300   12.1630   14.0340 O.co2 164  GLU164     -0.2457
     51  N          2.4270   12.5430   17.5680 N.3   220  ASN220     -0.1240
     52  CA         1.3400   11.5750   17.3780 C.3   220  ASN220      0.1653
     53  C          0.8220   11.1020   18.7570 C.2   220  ASN220      0.2266
     54  O          1.5920   10.9920   19.7150 O.2   220  ASN220     -0.2867
     55  CB         1.8410   10.3450   16.6180 C.3   220  ASN220      0.1155
     56  CG         3.0980    9.7700   17.2140 C.2   220  ASN220      0.2627
     57  OD1        4.1600   10.3110   16.9750 O.2   220  ASN220     -0.2716
     58  ND2        2.9820    8.6470   17.9520 N.am  220  ASN220     -0.0877
     59  N         -1.3970   15.4440   17.2480 N.3   291  ASN291     -0.1240
     60  CA        -2.1270   14.7470   16.2030 C.3   291  ASN291      0.1653
     61  C         -2.9070   13.6290   16.8770 C.2   291  ASN291      0.2266
     62  O         -2.4500   13.0150   17.8520 O.2   291  ASN291     -0.2867
     63  CB        -1.1870   14.1720   15.1500 C.3   291  ASN291      0.1155
     64  CG        -0.4890   15.2530   14.3360 C.2   291  ASN291      0.2627
     65  OD1       -0.8030   16.4430   14.4580 O.2   291  ASN291     -0.2716
     66  ND2        0.4840   14.8550   13.5380 N.am  291  ASN291     -0.0877
     67  N         -5.7650   10.2730   15.8130 N.3   293  TYR293     -0.1241
     68  CA        -6.6020    9.5500   14.8540 C.3   293  TYR293      0.1605
     69  C         -7.4390    8.4490   15.4570 C.2   293  TYR293      0.2264
     70  O         -8.5680    8.2460   15.0060 O.2   293  TYR293     -0.2867
     71  CB        -5.7710    8.9450   13.7270 C.3   293  TYR293      0.0534
     72  CG        -5.1950   10.0120   12.8250 C.ar  293  TYR293     -0.0201
     73  CD1       -5.8630   10.3900   11.6500 C.ar  293  TYR293     -0.0009
     74  CD2       -3.9820   10.6120   13.1320 C.ar  293  TYR293     -0.0009
     75  CE1       -5.3270   11.3600   10.8000 C.ar  293  TYR293      0.0417
     76  CE2       -3.4400   11.6170   12.3000 C.ar  293  TYR293      0.0417
     77  CZ        -4.1330   11.9760   11.1420 C.ar  293  TYR293      0.1957
     78  OH        -3.6010   12.9300   10.2940 O.3   293  TYR293     -0.2866
     79  N         -8.3470    1.5440   11.4120 N.3   321  TRP321     -0.1241
     80  CA        -8.1750    2.2110   12.6890 C.3   321  TRP321      0.1605
     81  C         -9.5120    2.4380   13.3870 C.2   321  TRP321      0.2264
     82  O        -10.4600    2.9870   12.7860 O.2   321  TRP321     -0.2867
     83  CB        -7.4950    3.5920   12.5440 C.3   321  TRP321      0.0550
     84  CG        -6.1540    3.5630   11.9060 C.ar  321  TRP321      0.0003
     85  CD1       -5.3270    2.4740   11.7240 C.ar  321  TRP321      0.0946
     86  CD2       -5.4690    4.6920   11.3800 C.ar  321  TRP321      0.0152
     87  NE1       -4.1580    2.8770   11.0890 N.ar  321  TRP321     -0.2442
     88  CE2       -4.2170    4.2390   10.8850 C.ar  321  TRP321      0.0810
     89  CE3       -5.7830    6.0680   11.3090 C.ar  321  TRP321      0.0012
     90  CZ2       -3.2880    5.1120   10.2820 C.ar  321  TRP321      0.0191
     91  CZ3       -4.8710    6.9270   10.7070 C.ar  321  TRP321      0.0001
     92  CH2       -3.6460    6.4530   10.2000 C.ar  321  TRP321      0.0015
     93  N         -3.3500   17.6710   13.4590 N.3   348  GLU348     -0.1245
     94  CA        -3.9610   16.7720   12.4830 C.3   348  GLU348      0.1567
     95  C         -5.0700   15.9790   13.1360 C.2   348  GLU348      0.2260
     96  O         -4.9050   15.4200   14.2120 O.2   348  GLU348     -0.2867
     97  CB        -2.9730   15.7020   11.9500 C.3   348  GLU348      0.0388
     98  CG        -1.7410   16.2840   11.2160 C.3   348  GLU348      0.1160
     99  CD        -0.8040   15.1910   10.6860 C.2   348  GLU348      0.3649
    100  OE1       -1.2080   14.0090   10.5410 O.co2 348  GLU348     -0.2457
    101  OE2        0.3780   15.5440   10.4260 O.co2 348  GLU348     -0.2457
    102  N         -6.5070   16.8590    8.6810 N.3   395  TRP395     -0.1241
    103  CA        -5.6690   16.1290    7.7510 C.3   395  TRP395      0.1605
    104  C         -6.6580   15.4120    6.8010 C.2   395  TRP395      0.2264
    105  O         -7.3830   14.5260    7.2730 O.2   395  TRP395     -0.2867
    106  CB        -4.7820   15.0710    8.4310 C.3   395  TRP395      0.0550
    107  CG        -3.9130   14.4590    7.4060 C.ar  395  TRP395      0.0003
    108  CD1       -4.1450   13.3360    6.6860 C.ar  395  TRP395      0.0946
    109  CD2       -2.6570   14.9730    6.9650 C.ar  395  TRP395      0.0152
    110  NE1       -3.1300   13.1330    5.7730 N.ar  395  TRP395     -0.2442
    111  CE2       -2.1920   14.1230    5.9440 C.ar  395  TRP395      0.0810
    112  CE3       -1.8870   16.0790    7.3380 C.ar  395  TRP395      0.0012
    113  CZ2       -0.9570   14.3360    5.2850 C.ar  395  TRP395      0.0191
    114  CZ3       -0.6460   16.2870    6.6790 C.ar  395  TRP395      0.0001
    115  CH2       -0.2190   15.4330    5.6660 C.ar  395  TRP395      0.0015
    116  N         -0.0640    8.4070    0.9410 N.3   402  GLU402     -0.1231
    117  CA        -0.1110    7.9460    2.3340 C.3   402  GLU402      0.1699
    118  C          1.0840    7.0240    2.6740 C.2   402  GLU402      0.2592
    119  O          0.9150    5.8580    3.0680 O.2   402  GLU402     -0.2718
    120  CB        -1.4880    7.2870    2.6360 C.3   402  GLU402      0.0402
    121  CG        -1.7290    6.8830    4.1030 C.3   402  GLU402      0.1161
    122  CD        -1.3770    7.9630    5.1210 C.2   402  GLU402      0.3649
    123  OE1       -1.5630    9.1830    4.8830 O.co2 402  GLU402     -0.2457
    124  OE2       -0.9410    7.5430    6.1940 O.co2 402  GLU402     -0.2457
    125  N          2.2910    7.5780    2.5380 N.am  403  TRP403     -0.1976
    126  CA         3.4950    6.8700    2.9740 C.3   403  TRP403      0.1640
    127  C          3.5150    5.4320    2.4830 C.2   403  TRP403      0.2290
    128  O          3.3800    5.2260    1.2820 O.2   403  TRP403     -0.2864
    129  CB         3.6560    7.0280    4.4850 C.3   403  TRP403      0.0576
    130  CG         3.6250    8.4680    4.8870 C.ar  403  TRP403      0.0006
    131  CD1        2.6760    9.0880    5.6930 C.ar  403  TRP403      0.0946
    132  CD2        4.5760    9.4970    4.5410 C.ar  403  TRP403      0.0152
    133  NE1        2.9640   10.4320    5.8250 N.ar  403  TRP403     -0.2442
    134  CE2        4.1210   10.7140    5.1280 C.ar  403  TRP403      0.0810
    135  CE3        5.7270    9.5230    3.7500 C.ar  403  TRP403      0.0012
    136  CZ2        4.8160   11.9310    4.9690 C.ar  403  TRP403      0.0191
    137  CZ3        6.4150   10.7340    3.5900 C.ar  403  TRP403      0.0001
    138  CH2        5.9680   11.9180    4.1980 C.ar  403  TRP403      0.0015
    139  N         -7.3000   10.6930    2.4000 N.3   411  PHE411     -0.1241
    140  CA        -7.6550   11.4330    3.6230 C.3   411  PHE411      0.1605
    141  C         -8.1710   12.8350    3.3170 C.2   411  PHE411      0.2264
    142  O         -8.4750   13.6080    4.2250 O.2   411  PHE411     -0.2867
    143  CB        -6.4300   11.6350    4.5290 C.3   411  PHE411      0.0534
    144  CG        -6.1230   10.4930    5.4370 C.ar  411  PHE411     -0.0203
    145  CD1       -5.3280    9.4420    4.9650 C.ar  411  PHE411     -0.0042
    146  CD2       -6.5150   10.5290    6.7710 C.ar  411  PHE411     -0.0042
    147  CE1       -4.9460    8.3970    5.8300 C.ar  411  PHE411     -0.0003
    148  CE2       -6.1650    9.4600    7.6470 C.ar  411  PHE411     -0.0003
    149  CZ        -5.3850    8.3940    7.1640 C.ar  411  PHE411     -0.0000
@<TRIPOS>BOND
     1     4     3    2
     2     3     2    1
     3     2     1    1
     4     2     5    1
     5   116   117    1
     6   128   127    2
     7     5     6    1
     8   117   120    1
     9   117   118    1
    10   139   140    1
    11   127   126    1
    12     6     7    1
    13   125   118   am
    14   125   126    1
    15   120   121    1
    16   118   119    2
    17   126   129    1
    18   141   140    1
    19   141   142    2
    20   137   135   ar
    21   137   138   ar
    22   140   143    1
    23     9     7   am
    24     7     8    2
    25   135   132   ar
    26   121   122    1
    27   138   136   ar
    28   129   130    1
    29   143   144    1
    30   132   130   ar
    31   132   134   ar
    32   123   122   ar
    33   130   131   ar
    34   145   144   ar
    35   145   147   ar
    36   136   134   ar
    37   122   124   ar
    38   134   133   ar
    39   113   115   ar
    40   113   111   ar
    41   144   146   ar
    42   115   114   ar
    43   131   133   ar
    44   110   111   ar
    45   110   108   ar
    46    23    22    2
    47   147   149   ar
    48   111   109   ar
    49    22    21    1
    50    13    12    2
    51   114   112   ar
    52   108   107   ar
    53   146   148   ar
    54   104   105    2
    55   104   103    1
    56   109   112   ar
    57   109   107   ar
    58    12    20   am
    59    12    11    1
    60   149   148   ar
    61    24    21    1
    62    24    25    1
    63    21    20    1
    64    14    15    1
    65    14    11    1
    66   107   106    1
    67    17    15   ar
    68    17    19   ar
    69    15    16   ar
    70    30    32   ar
    71    30    27   ar
    72   103   106    1
    73   103   102    1
    74    19    18   ar
    75    11    10    1
    76    16    18   ar
    77    32    33   ar
    78    25    27   ar
    79    25    26   ar
    80    27    29   ar
    81    33    31   ar
    82    26    28   ar
    83    29    31   ar
    84    29    28   ar
    85    92    90   ar
    86    92    91   ar
    87    90    88   ar
    88    78    77    1
    89   101    99   ar
    90   100    99   ar
    91    99    98    1
    92    91    89   ar
    93    75    77   ar
    94    75    73   ar
    95    41    39   am
    96    88    87   ar
    97    88    86   ar
    98    87    85   ar
    99    77    76   ar
   100    98    97    1
   101    89    86   ar
   102    86    84   ar
   103    79    80    1
   104    38    39    1
   105    38    35    1
   106    39    40    2
   107    73    72   ar
   108    85    84   ar
   109    84    83    1
   110    97    94    1
   111    76    74   ar
   112    94    95    1
   113    94    93    1
   114    83    80    1
   115    80    81    1
   116    49    48   ar
   117    37    36    2
   118    82    81    2
   119    72    74   ar
   120    72    71    1
   121    34    35    1
   122    35    36    1
   123    95    96    2
   124    36    42   am
   125    66    64   am
   126    48    50   ar
   127    48    47    1
   128    71    68    1
   129    47    46    1
   130    46    43    1
   131    64    65    2
   132    64    63    1
   133    45    44    2
   134    42    43    1
   135    68    69    1
   136    68    67    1
   137    70    69    2
   138    43    44    1
   139    63    60    1
   140    60    61    1
   141    60    59    1
   142    55    56    1
   143    55    52    1
   144    61    62    2
   145    57    56    2
   146    56    58   am
   147    52    51    1
   148    52    53    1
   149    53    54    2
