@<TRIPOS>MOLECULE
tmp/2j7bB00.pdb
 149 149 0 0 0
SMALL
GASTEIGER

@<TRIPOS>ATOM
      1  N          8.6960   -6.4970   43.3160 N.3    18  GLN18      -0.1245
      2  CA         7.3660   -5.8890   43.3010 C.3    18  GLN18       0.1566
      3  C          6.4480   -6.4070   44.4260 C.2    18  GLN18       0.2260
      4  O          5.5470   -5.6870   44.8730 O.2    18  GLN18      -0.2867
      5  CB         6.7310   -6.0650   41.9330 C.3    18  GLN18       0.0367
      6  CG         7.5410   -5.3650   40.8570 C.3    18  GLN18       0.0905
      7  CD         6.9140   -5.4070   39.5190 C.2    18  GLN18       0.2608
      8  OE1        7.2520   -6.2560   38.7000 O.2    18  GLN18      -0.2717
      9  NE2        6.0080   -4.4740   39.2510 N.am   18  GLN18      -0.0878
     10  N         14.4930  -10.3510   36.9780 N.3   119  HIS119     -0.1226
     11  CA        13.4570   -9.3480   36.7870 C.3   119  HIS119      0.1752
     12  C         13.8290   -8.0420   37.5110 C.2   119  HIS119      0.2596
     13  O         13.0280   -7.4660   38.2670 O.2   119  HIS119     -0.2718
     14  CB        12.1000   -9.9100   37.2420 C.3   119  HIS119      0.0759
     15  CG        10.9160   -9.2460   36.6180 C.ar  119  HIS119      0.0818
     16  ND1        9.8880   -9.9660   36.0370 N.ar  119  HIS119     -0.2268
     17  CD2       10.5400   -7.9440   36.5660 C.ar  119  HIS119      0.1154
     18  CE1        8.9530   -9.1310   35.6210 C.ar  119  HIS119      0.1986
     19  NE2        9.3150   -7.8980   35.9490 N.ar  119  HIS119     -0.2212
     20  N         15.0850   -7.6120   37.2680 N.am  120  TRP120     -0.1976
     21  CA        15.5550   -6.2100   37.4140 C.3   120  TRP120      0.1640
     22  C         16.2390   -5.8740   38.7230 C.2   120  TRP120      0.2290
     23  O         16.7870   -4.7710   38.8620 O.2   120  TRP120     -0.2864
     24  CB        14.4480   -5.1730   37.1760 C.3   120  TRP120      0.0576
     25  CG        13.7090   -5.2960   35.9000 C.ar  120  TRP120      0.0006
     26  CD1       13.9700   -6.1530   34.8500 C.ar  120  TRP120      0.0946
     27  CD2       12.5680   -4.5190   35.5120 C.ar  120  TRP120      0.0152
     28  NE1       13.0530   -5.9530   33.8480 N.ar  120  TRP120     -0.2442
     29  CE2       12.1830   -4.9580   34.2260 C.ar  120  TRP120      0.0810
     30  CE3       11.8480   -3.4750   36.1230 C.ar  120  TRP120      0.0012
     31  CZ2       11.1050   -4.3940   33.5310 C.ar  120  TRP120      0.0191
     32  CZ3       10.7680   -2.9170   35.4300 C.ar  120  TRP120      0.0001
     33  CH2       10.4060   -3.3880   34.1430 C.ar  120  TRP120      0.0015
     34  N         13.7440  -10.8060   31.9930 N.3   163  ASN163     -0.1225
     35  CA        12.5570  -10.0010   31.6850 C.3   163  ASN163      0.1785
     36  C         12.9390   -8.6810   31.0460 C.2   163  ASN163      0.2597
     37  O         13.5590   -7.8360   31.7060 O.2   163  ASN163     -0.2718
     38  CB        11.7420   -9.7000   32.9530 C.3   163  ASN163      0.1169
     39  CG        10.4450   -8.9770   32.6480 C.2   163  ASN163      0.2627
     40  OD1        9.5150   -9.5800   32.1310 O.2   163  ASN163     -0.2716
     41  ND2       10.3800   -7.6790   32.9580 N.am  163  ASN163     -0.0877
     42  N         12.5600   -8.5070   29.7840 N.am  164  GLU164     -0.1979
     43  CA        12.5660   -7.2020   29.1150 C.3   164  GLU164      0.1602
     44  C         13.9590   -6.5470   29.1290 C.2   164  GLU164      0.2287
     45  O         14.1320   -5.4550   29.6760 O.2   164  GLU164     -0.2864
     46  CB        11.5210   -6.2530   29.7310 C.3   164  GLU164      0.0415
     47  CG        10.0790   -6.8210   29.6340 C.3   164  GLU164      0.1163
     48  CD         9.0060   -5.8490   30.0870 C.2   164  GLU164      0.3649
     49  OE1        9.3310   -4.8600   30.7880 O.co2 164  GLU164     -0.2457
     50  OE2        7.8190   -6.0740   29.7240 O.co2 164  GLU164     -0.2457
     51  N          9.3890   -7.0090   26.0520 N.3   220  ASN220     -0.1240
     52  CA         8.3050   -6.0500   25.9540 C.3   220  ASN220      0.1653
     53  C          8.0680   -5.7790   24.4790 C.2   220  ASN220      0.2266
     54  O          8.9910   -5.8630   23.6550 O.2   220  ASN220     -0.2867
     55  CB         8.6230   -4.7270   26.6900 C.3   220  ASN220      0.1155
     56  CG         9.9560   -4.1500   26.2870 C.2   220  ASN220      0.2627
     57  OD1       10.9820   -4.6790   26.6690 O.2   220  ASN220     -0.2716
     58  ND2        9.9470   -3.1060   25.4630 N.am  220  ASN220     -0.0877
     59  N          5.5930   -9.9620   26.1360 N.3   291  ASN291     -0.1240
     60  CA         4.7480   -9.1450   26.9900 C.3   291  ASN291      0.1653
     61  C          4.0550   -8.1400   26.0860 C.2   291  ASN291      0.2266
     62  O          4.6590   -7.6070   25.1490 O.2   291  ASN291     -0.2867
     63  CB         5.5780   -8.3970   28.0600 C.3   291  ASN291      0.1155
     64  CG         6.1910   -9.3140   29.1080 C.2   291  ASN291      0.2627
     65  OD1        5.9190  -10.5210   29.1800 O.2   291  ASN291     -0.2716
     66  ND2        7.0270   -8.7210   29.9670 N.am  291  ASN291     -0.0877
     67  N          0.8470   -4.9540   26.2050 N.3   293  TYR293     -0.1241
     68  CA        -0.0070   -4.0970   26.9990 C.3   293  TYR293      0.1605
     69  C         -0.6670   -3.0100   26.1610 C.2   293  TYR293      0.2264
     70  O         -1.8380   -2.6630   26.3770 O.2   293  TYR293     -0.2867
     71  CB         0.8350   -3.4160   28.0750 C.3   293  TYR293      0.0534
     72  CG         1.2580   -4.3010   29.2220 C.ar  293  TYR293     -0.0201
     73  CD1        2.4390   -5.0450   29.1610 C.ar  293  TYR293     -0.0009
     74  CD2        0.5080   -4.3520   30.3960 C.ar  293  TYR293     -0.0009
     75  CE1        2.8330   -5.8330   30.2160 C.ar  293  TYR293      0.0417
     76  CE2        0.8980   -5.1460   31.4630 C.ar  293  TYR293      0.0417
     77  CZ         2.0670   -5.8700   31.3650 C.ar  293  TYR293      0.1957
     78  OH         2.4470   -6.6480   32.4050 O.3   293  TYR293     -0.2866
     79  N         -1.9930    4.3090   29.0890 N.3   321  TRP321     -0.1241
     80  CA        -1.6780    3.4670   27.9410 C.3   321  TRP321      0.1605
     81  C         -2.9390    3.0770   27.1870 C.2   321  TRP321      0.2264
     82  O         -3.8900    2.5580   27.7870 O.2   321  TRP321     -0.2867
     83  CB        -1.0050    2.1630   28.3720 C.3   321  TRP321      0.0550
     84  CG         0.2770    2.2700   29.1680 C.ar  321  TRP321      0.0003
     85  CD1        1.1090    3.3550   29.2880 C.ar  321  TRP321      0.0946
     86  CD2        0.8960    1.2080   29.9050 C.ar  321  TRP321      0.0152
     87  NE1        2.1890    3.0400   30.0980 N.ar  321  TRP321     -0.2442
     88  CE2        2.0850    1.7280   30.4770 C.ar  321  TRP321      0.0810
     89  CE3        0.5530   -0.1340   30.1490 C.ar  321  TRP321      0.0012
     90  CZ2        2.9320    0.9500   31.2790 C.ar  321  TRP321      0.0191
     91  CZ3        1.3930   -0.9030   30.9410 C.ar  321  TRP321      0.0001
     92  CH2        2.5740   -0.3550   31.4950 C.ar  321  TRP321      0.0015
     93  N          3.1410  -11.6880   29.9510 N.3   348  GLU348     -0.1245
     94  CA         2.4310  -10.6430   30.6800 C.3   348  GLU348      0.1567
     95  C          1.4080   -9.9920   29.7860 C.2   348  GLU348      0.2260
     96  O          1.6880   -9.6330   28.6420 O.2   348  GLU348     -0.2867
     97  CB         3.3740   -9.5150   31.1280 C.3   348  GLU348      0.0388
     98  CG         4.3180   -9.8670   32.2230 C.3   348  GLU348      0.1160
     99  CD         5.2480   -8.7290   32.5890 C.2   348  GLU348      0.3649
    100  OE1        4.8550   -7.5520   32.4280 O.co2 348  GLU348     -0.2457
    101  OE2        6.3680   -9.0370   33.0440 O.co2 348  GLU348     -0.2457
    102  N         -0.5470  -10.2390   34.0470 N.3   395  TRP395     -0.1241
    103  CA         0.1020   -9.3400   34.9930 C.3   395  TRP395      0.1605
    104  C         -0.9930   -8.5120   35.6720 C.2   395  TRP395      0.2264
    105  O         -1.6460   -7.7100   35.0090 O.2   395  TRP395     -0.2867
    106  CB         1.1080   -8.4000   34.3090 C.3   395  TRP395      0.0550
    107  CG         1.8640   -7.6420   35.3460 C.ar  395  TRP395      0.0003
    108  CD1        1.5270   -6.4450   35.8980 C.ar  395  TRP395      0.0946
    109  CD2        3.0460   -8.0740   36.0140 C.ar  395  TRP395      0.0152
    110  NE1        2.4350   -6.0900   36.8660 N.ar  395  TRP395     -0.2442
    111  CE2        3.3760   -7.0830   36.9630 C.ar  395  TRP395      0.0810
    112  CE3        3.8690   -9.2070   35.8980 C.ar  395  TRP395      0.0012
    113  CZ2        4.4970   -7.1770   37.7750 C.ar  395  TRP395      0.0191
    114  CZ3        4.9860   -9.3000   36.7070 C.ar  395  TRP395      0.0001
    115  CH2        5.2780   -8.3040   37.6470 C.ar  395  TRP395      0.0015
    116  N          4.7440   -0.7790   41.6120 N.3   402  GLU402     -0.1231
    117  CA         4.8380   -0.5390   40.1850 C.3   402  GLU402      0.1699
    118  C          6.0490    0.3580   39.8520 C.2   402  GLU402      0.2592
    119  O          5.9190    1.4280   39.2690 O.2   402  GLU402     -0.2718
    120  CB         3.5040   -0.0210   39.6420 C.3   402  GLU402      0.0402
    121  CG         3.4350    0.2620   38.1440 C.3   402  GLU402      0.1161
    122  CD         3.9640   -0.8530   37.2620 C.2   402  GLU402      0.3649
    123  OE1        3.7790   -2.0580   37.5700 O.co2 402  GLU402     -0.2457
    124  OE2        4.5820   -0.5010   36.2390 O.co2 402  GLU402     -0.2457
    125  N          7.2270   -0.0930   40.2880 N.am  403  TRP403     -0.1976
    126  CA         8.5010    0.5310   39.9010 C.3   403  TRP403      0.1640
    127  C          8.4820    2.0290   40.2200 C.2   403  TRP403      0.2290
    128  O          8.1620    2.3770   41.3660 O.2   403  TRP403     -0.2864
    129  CB         8.8500    0.1880   38.4480 C.3   403  TRP403      0.0576
    130  CG         8.8860   -1.3080   38.1930 C.ar  403  TRP403      0.0006
    131  CD1        8.0540   -2.0310   37.3440 C.ar  403  TRP403      0.0946
    132  CD2        9.7540   -2.2670   38.8050 C.ar  403  TRP403      0.0152
    133  NE1        8.3770   -3.3700   37.4020 N.ar  403  TRP403     -0.2442
    134  CE2        9.4100   -3.5430   38.2880 C.ar  403  TRP403      0.0810
    135  CE3       10.7900   -2.1820   39.7430 C.ar  403  TRP403      0.0012
    136  CZ2       10.0990   -4.7170   38.6590 C.ar  403  TRP403      0.0191
    137  CZ3       11.4630   -3.3540   40.1180 C.ar  403  TRP403      0.0001
    138  CH2       11.1060   -4.6040   39.5860 C.ar  403  TRP403      0.0015
    139  N         -2.2910   -3.3650   39.2850 N.3   411  PHE411     -0.1241
    140  CA        -2.4100   -4.2330   38.1040 C.3   411  PHE411      0.1605
    141  C         -3.0620   -5.5820   38.4420 C.2   411  PHE411      0.2264
    142  O         -3.2930   -6.4030   37.5540 O.2   411  PHE411     -0.2867
    143  CB        -1.0140   -4.5100   37.4850 C.3   411  PHE411      0.0534
    144  CG        -0.5520   -3.4740   36.4810 C.ar  411  PHE411     -0.0203
    145  CD1        0.1510   -2.3290   36.8940 C.ar  411  PHE411     -0.0042
    146  CD2       -0.7750   -3.6530   35.1250 C.ar  411  PHE411     -0.0042
    147  CE1        0.5780   -1.3770   35.9640 C.ar  411  PHE411     -0.0003
    148  CE2       -0.3300   -2.7140   34.1880 C.ar  411  PHE411     -0.0003
    149  CZ         0.3340   -1.5680   34.6090 C.ar  411  PHE411     -0.0000
@<TRIPOS>BOND
     1    54    53    2
     2    53    52    1
     3    62    61    2
     4    58    56   am
     5    52    51    1
     6    52    55    1
     7    61    60    1
     8    59    60    1
     9    69    70    2
    10    69    68    1
    11    67    68    1
    12    56    57    2
    13    56    55    1
    14    60    63    1
    15    68    71    1
    16    81    82    2
    17    81    80    1
    18    80    83    1
    19    80    79    1
    20    63    64    1
    21    71    72    1
    22    83    84    1
    23    96    95    2
    24    64    65    2
    25    64    66   am
    26    43    44    1
    27    43    46    1
    28    43    42    1
    29    44    45    2
    30    73    72   ar
    31    73    75   ar
    32    84    85   ar
    33    84    86   ar
    34    72    74   ar
    35    85    87   ar
    36    47    46    1
    37    47    48    1
    38    50    48   ar
    39    42    36   am
    40    95    94    1
    41    86    89   ar
    42    86    88   ar
    43    93    94    1
    44    48    49   ar
    45    87    88   ar
    46    89    91   ar
    47    75    77   ar
    48    74    76   ar
    49    88    90   ar
    50    94    97    1
    51    91    92   ar
    52    36    35    1
    53    36    37    2
    54    97    98    1
    55    90    92   ar
    56    77    76   ar
    57    77    78    1
    58    35    34    1
    59    35    38    1
    60    40    39    2
    61    98    99    1
    62   100    99   ar
    63    99   101   ar
    64    39    38    1
    65    39    41   am
    66    31    33   ar
    67    31    29   ar
    68    28    29   ar
    69    28    26   ar
    70   102   103    1
    71    33    32   ar
    72   148   149   ar
    73   148   146   ar
    74    29    27   ar
    75   106   103    1
    76   106   107    1
    77   149   147   ar
    78    26    25   ar
    79   103   104    1
    80   105   104    2
    81   146   144   ar
    82   107   108   ar
    83   107   109   ar
    84    32    30   ar
    85    27    25   ar
    86    27    30   ar
    87    18    19   ar
    88    18    16   ar
    89   112   109   ar
    90   112   114   ar
    91   108   110   ar
    92    25    24    1
    93    19    17   ar
    94   147   145   ar
    95   109   111   ar
    96    16    15   ar
    97   124   122   ar
    98   144   145   ar
    99   144   143    1
   100    17    15   ar
   101    15    14    1
   102   114   115   ar
   103    11    10    1
   104    11    14    1
   105    11    12    1
   106   110   111   ar
   107   111   113   ar
   108    24    21    1
   109   122   123   ar
   110   122   121    1
   111    20    21    1
   112    20    12   am
   113   131   133   ar
   114   131   130   ar
   115   133   134   ar
   116    21    22    1
   117   143   140    1
   118    12    13    2
   119   142   141    2
   120   115   113   ar
   121   140   141    1
   122   140   139    1
   123   121   120    1
   124   130   129    1
   125   130   132   ar
   126   134   136   ar
   127   134   132   ar
   128   129   126    1
   129   136   138   ar
   130     8     7    2
   131    22    23    2
   132   132   135   ar
   133     9     7   am
   134   119   118    2
   135     7     6    1
   136   138   137   ar
   137   120   117    1
   138   135   137   ar
   139   118   117    1
   140   118   125   am
   141   126   127    1
   142   126   125    1
   143   117   116    1
   144   127   128    2
   145     6     5    1
   146     5     2    1
   147     2     1    1
   148     2     3    1
   149     3     4    2
