@<TRIPOS>MOLECULE
tmp/2j7cB00.pdb
 217 217 0 0 0
SMALL
GASTEIGER

@<TRIPOS>ATOM
      1  N        -17.1860  -32.2850  -14.8340 N.3    19  GLN19      -0.1245
      2  CA       -17.8590  -30.9880  -14.7730 C.3    19  GLN19       0.1566
      3  C        -17.3760  -29.9990  -15.8430 C.2    19  GLN19       0.2260
      4  O        -18.1320  -29.0860  -16.2320 O.2    19  GLN19      -0.2867
      5  CB       -17.6580  -30.3690  -13.4000 C.3    19  GLN19       0.0367
      6  CG       -18.2550  -31.2310  -12.2990 C.3    19  GLN19       0.0905
      7  CD       -18.3870  -30.5250  -11.0140 C.2    19  GLN19       0.2608
      8  OE1      -17.5850  -30.7310  -10.1080 O.2    19  GLN19      -0.2717
      9  NE2      -19.4260  -29.7030  -10.8870 N.am   19  GLN19      -0.0878
     10  N        -13.3140  -38.1120   -8.4580 N.3   120  HIS120     -0.1226
     11  CA       -14.3100  -37.0540   -8.2090 C.3   120  HIS120      0.1752
     12  C        -15.6150  -37.4420   -8.9350 C.2   120  HIS120      0.2596
     13  O        -16.2120  -36.6510   -9.6730 O.2   120  HIS120     -0.2718
     14  CB       -13.7630  -35.6610   -8.6140 C.3   120  HIS120      0.0759
     15  CG       -14.5070  -34.4940   -8.0310 C.ar  120  HIS120      0.0818
     16  ND1      -13.8640  -33.4460   -7.4080 N.ar  120  HIS120     -0.2268
     17  CD2      -15.8250  -34.1920   -7.9970 C.ar  120  HIS120      0.1154
     18  CE1      -14.7520  -32.5430   -7.0280 C.ar  120  HIS120      0.1986
     19  NE2      -15.9530  -32.9710   -7.3770 N.ar  120  HIS120     -0.2212
     20  N        -15.9990  -38.7170   -8.7460 N.am  121  TRP121     -0.1976
     21  CA       -17.3770  -39.1990   -8.9350 C.3   121  TRP121      0.1640
     22  C        -17.6730  -39.8510  -10.2900 C.2   121  TRP121      0.2290
     23  O        -18.7430  -40.4040  -10.4890 O.2   121  TRP121     -0.2864
     24  CB       -18.4190  -38.1170   -8.6180 C.3   121  TRP121      0.0576
     25  CG       -18.2870  -37.3900   -7.2830 C.ar  121  TRP121      0.0006
     26  CD1      -17.4130  -37.6670   -6.2410 C.ar  121  TRP121      0.0946
     27  CD2      -19.0760  -36.2560   -6.8450 C.ar  121  TRP121      0.0152
     28  NE1      -17.6190  -36.7790   -5.1980 N.ar  121  TRP121     -0.2442
     29  CE2      -18.6320  -35.9080   -5.5400 C.ar  121  TRP121      0.0810
     30  CE3      -20.1130  -35.5130   -7.4280 C.ar  121  TRP121      0.0012
     31  CZ2      -19.1880  -34.8310   -4.8160 C.ar  121  TRP121      0.0191
     32  CZ3      -20.6670  -34.4460   -6.7060 C.ar  121  TRP121      0.0001
     33  CH2      -20.2040  -34.1170   -5.4120 C.ar  121  TRP121      0.0015
     34  N        -12.8350  -37.4870   -3.4560 N.3   164  ASN164     -0.1225
     35  CA       -13.6270  -36.3000   -3.1680 C.3   164  ASN164      0.1785
     36  C        -14.9630  -36.6710   -2.5360 C.2   164  ASN164      0.2597
     37  O        -15.7940  -37.3280   -3.1710 O.2   164  ASN164     -0.2718
     38  CB       -13.8560  -35.4620   -4.4380 C.3   164  ASN164      0.1169
     39  CG       -14.5790  -34.1690   -4.1590 C.2   164  ASN164      0.2627
     40  OD1      -13.9980  -33.2460   -3.6110 O.2   164  ASN164     -0.2716
     41  ND2      -15.8630  -34.1000   -4.5300 N.am  164  ASN164     -0.0877
     42  N        -15.1370  -36.2590   -1.2770 N.am  165  GLU165     -0.1979
     43  CA       -16.3860  -36.3360   -0.5400 C.3   165  GLU165      0.1602
     44  C        -17.0570  -37.7270   -0.5710 C.2   165  GLU165      0.2287
     45  O        -18.1430  -37.8630   -1.1180 O.2   165  GLU165     -0.2864
     46  CB       -17.3710  -35.2220   -0.9830 C.3   165  GLU165      0.0415
     47  CG       -16.7400  -33.8060   -0.9310 C.3   165  GLU165      0.1163
     48  CD       -17.6710  -32.7060   -1.3900 C.2   165  GLU165      0.3649
     49  OE1      -18.6370  -32.9770   -2.1250 O.co2 165  GLU165     -0.2457
     50  OE2      -17.4420  -31.5480   -1.0040 O.co2 165  GLU165     -0.2457
     51  N        -18.7550  -39.1290    1.5890 N.3   167  TRP167     -0.1227
     52  CA       -20.1040  -39.0340    2.1330 C.3   167  TRP167      0.1737
     53  C        -21.1480  -38.8390    1.0340 C.2   167  TRP167      0.2595
     54  O        -22.2190  -39.4550    1.0620 O.2   167  TRP167     -0.2718
     55  CB       -20.2440  -37.9000    3.1680 C.3   167  TRP167      0.0564
     56  CG       -21.6180  -37.8650    3.7630 C.ar  167  TRP167      0.0003
     57  CD1      -22.0570  -38.5750    4.8320 C.ar  167  TRP167      0.0946
     58  CD2      -22.7650  -37.1140    3.2800 C.ar  167  TRP167      0.0152
     59  NE1      -23.3730  -38.2880    5.0780 N.ar  167  TRP167     -0.2442
     60  CE2      -23.8290  -37.4000    4.1340 C.ar  167  TRP167      0.0810
     61  CE3      -22.9760  -36.2310    2.2050 C.ar  167  TRP167      0.0012
     62  CZ2      -25.1080  -36.8470    3.9520 C.ar  167  TRP167      0.0191
     63  CZ3      -24.2570  -35.6490    2.0290 C.ar  167  TRP167      0.0001
     64  CH2      -25.2900  -35.9540    2.9020 C.ar  167  TRP167      0.0015
     65  N        -20.8200  -37.9650    0.0840 N.am  168  VAL168     -0.1980
     66  CA       -21.7210  -37.6030   -0.9890 C.3   168  VAL168      0.1595
     67  C        -21.8190  -38.8130   -1.9280 C.2   168  VAL168      0.2287
     68  O        -22.9210  -39.2480   -2.2590 O.2   168  VAL168     -0.2864
     69  CB       -21.2440  -36.3060   -1.7200 C.3   168  VAL168      0.0276
     70  CG1      -22.0230  -36.0780   -3.0040 C.3   168  VAL168      0.0022
     71  CG2      -21.3570  -35.0810   -0.8060 C.3   168  VAL168      0.0022
     72  N        -16.6550  -33.2870    2.6360 N.3   221  ASN221     -0.1225
     73  CA       -17.6240  -32.2090    2.7140 C.3   221  ASN221      0.1785
     74  C        -17.9510  -31.9250    4.1490 C.2   221  ASN221      0.2597
     75  O        -17.9590  -32.8440    4.9990 O.2   221  ASN221     -0.2718
     76  CB       -18.9300  -32.5430    1.9830 C.3   221  ASN221      0.1169
     77  CG       -19.5060  -33.8780    2.3970 C.2   221  ASN221      0.2627
     78  OD1      -18.9880  -34.9270    1.9890 O.2   221  ASN221     -0.2716
     79  ND2      -20.5870  -33.8590    3.2020 N.am  221  ASN221     -0.0877
     80  N        -18.1930  -30.6490    4.4450 N.am  222  ASN222     -0.1960
     81  CA       -18.5330  -30.2550    5.8000 C.3   222  ASN222      0.1819
     82  C        -19.5080  -29.0920    5.7850 C.2   222  ASN222      0.2621
     83  O        -19.4020  -28.1880    4.9470 O.2   222  ASN222     -0.2715
     84  CB       -17.2980  -29.8360    6.6130 C.3   222  ASN222      0.1195
     85  CG       -16.1910  -30.8270    6.5440 C.2   222  ASN222      0.2630
     86  OD1      -16.0600  -31.6980    7.4090 O.2   222  ASN222     -0.2716
     87  ND2      -15.3630  -30.7000    5.5160 N.am  222  ASN222     -0.0877
     88  N        -20.4460  -29.1330    6.7140 N.am  223  GLY223     -0.1954
     89  CA       -21.3160  -28.0030    6.9730 C.3   223  GLY223      0.1869
     90  C        -21.1990  -27.6260    8.4410 C.2   223  GLY223      0.2309
     91  O        -20.8530  -28.4600    9.2930 O.2   223  GLY223     -0.2863
     92  N        -23.2270  -26.9120   11.4970 N.3   225  PHE225     -0.1241
     93  CA       -24.5440  -27.1370   12.0980 C.3   225  PHE225      0.1605
     94  C        -24.6900  -26.4570   13.4760 C.2   225  PHE225      0.2264
     95  O        -23.8440  -26.6260   14.3580 O.2   225  PHE225     -0.2867
     96  CB       -24.8570  -28.6470   12.2080 C.3   225  PHE225      0.0534
     97  CG       -24.7130  -29.3820   10.8980 C.ar  225  PHE225     -0.0203
     98  CD1      -25.7070  -29.2970    9.9210 C.ar  225  PHE225     -0.0042
     99  CD2      -23.5710  -30.1150   10.6170 C.ar  225  PHE225     -0.0042
    100  CE1      -25.5540  -29.9410    8.6850 C.ar  225  PHE225     -0.0003
    101  CE2      -23.4250  -30.7780    9.3920 C.ar  225  PHE225     -0.0003
    102  CZ       -24.4020  -30.6780    8.4240 C.ar  225  PHE225     -0.0000
    103  N        -22.5030  -36.2610    8.7310 N.3   245  ASN245     -0.1240
    104  CA       -22.3330  -35.4380    7.5560 C.3   245  ASN245      0.1653
    105  C        -20.9520  -34.8880    7.3690 C.2   245  ASN245      0.2266
    106  O        -20.5620  -34.5650    6.2480 O.2   245  ASN245     -0.2867
    107  CB       -23.3370  -34.2930    7.5940 C.3   245  ASN245      0.1155
    108  CG       -24.6360  -34.6690    6.9830 C.2   245  ASN245      0.2627
    109  OD1      -24.9630  -34.2050    5.8970 O.2   245  ASN245     -0.2716
    110  ND2      -25.3790  -35.5460    7.6450 N.am  245  ASN245     -0.0877
    111  N        -13.8170  -29.3600    2.5210 N.3   292  ASN292     -0.1240
    112  CA       -14.6440  -28.5530    1.6190 C.3   292  ASN292      0.1653
    113  C        -15.7050  -27.9120    2.4860 C.2   292  ASN292      0.2266
    114  O        -16.2850  -28.5710    3.3490 O.2   292  ASN292     -0.2867
    115  CB       -15.3630  -29.4180    0.5640 C.3   292  ASN292      0.1155
    116  CG       -14.4410  -30.0190   -0.4590 C.2   292  ASN292      0.2627
    117  OD1      -13.2450  -29.7780   -0.4620 O.2   292  ASN292     -0.2716
    118  ND2      -15.0120  -30.8230   -1.3600 N.am  292  ASN292     -0.0877
    119  N        -18.9730  -24.8170    2.4960 N.3   294  TYR294     -0.1227
    120  CA       -19.7890  -23.8720    1.7690 C.3   294  TYR294      0.1736
    121  C        -20.8420  -23.2360    2.6540 C.2   294  TYR294      0.2596
    122  O        -21.1340  -22.0670    2.4930 O.2   294  TYR294     -0.2718
    123  CB       -20.4810  -24.5560    0.5850 C.3   294  TYR294      0.0548
    124  CG       -19.5630  -25.0230   -0.5210 C.ar  294  TYR294     -0.0200
    125  CD1      -19.5290  -24.3460   -1.7420 C.ar  294  TYR294     -0.0009
    126  CD2      -18.7710  -26.1690   -0.3770 C.ar  294  TYR294     -0.0009
    127  CE1      -18.7300  -24.7750   -2.7700 C.ar  294  TYR294      0.0417
    128  CE2      -17.9460  -26.5900   -1.4020 C.ar  294  TYR294      0.0417
    129  CZ       -17.9520  -25.8900   -2.6070 C.ar  294  TYR294      0.1957
    130  OH       -17.1730  -26.2950   -3.6520 O.3   294  TYR294     -0.2866
    131  N        -21.4300  -23.9780    3.5760 N.am  295  SER295     -0.1952
    132  CA       -22.6870  -23.5070    4.1450 C.3   295  SER295      0.1924
    133  C        -22.9600  -23.9060    5.5840 C.2   295  SER295      0.2314
    134  O        -22.3370  -24.8310    6.1060 O.2   295  SER295     -0.2863
    135  CB       -23.8430  -23.9530    3.2320 C.3   295  SER295      0.2116
    136  OG       -25.1000  -23.7600    3.8580 O.3   295  SER295     -0.2180
    137  N        -26.2220  -24.6700    8.6460 N.3   297  HIS297     -0.1241
    138  CA       -27.5500  -25.2240    8.7500 C.3   297  HIS297      0.1621
    139  C        -27.9540  -25.1740   10.1970 C.2   297  HIS297      0.2264
    140  O        -27.1450  -25.4710   11.0670 O.2   297  HIS297     -0.2867
    141  CB       -27.5860  -26.7000    8.2850 C.3   297  HIS297      0.0745
    142  CG       -27.0810  -26.9180    6.8860 C.ar  297  HIS297      0.0817
    143  ND1      -27.8340  -26.6250    5.7690 N.ar  297  HIS297     -0.2268
    144  CD2      -25.9010  -27.4040    6.4270 C.ar  297  HIS297      0.1154
    145  CE1      -27.1400  -26.9120    4.6830 C.ar  297  HIS297      0.1986
    146  NE2      -25.9620  -27.3860    5.0530 N.ar  297  HIS297     -0.2212
    147  N        -28.1370  -21.8890   -0.2730 N.3   322  TRP322     -0.1241
    148  CA       -27.3150  -22.2790    0.8460 C.3   322  TRP322      0.1605
    149  C        -27.0310  -21.0550    1.7000 C.2   322  TRP322      0.2264
    150  O        -26.4850  -20.0710    1.2040 O.2   322  TRP322     -0.2867
    151  CB       -25.9980  -22.9110    0.3830 C.3   322  TRP322      0.0550
    152  CG       -26.1210  -24.1970   -0.4240 C.ar  322  TRP322      0.0003
    153  CD1      -27.2170  -25.0160   -0.5370 C.ar  322  TRP322      0.0946
    154  CD2      -25.0770  -24.8150   -1.1910 C.ar  322  TRP322      0.0152
    155  NE1      -26.9250  -26.0880   -1.3640 N.ar  322  TRP322     -0.2442
    156  CE2      -25.6230  -25.9870   -1.7790 C.ar  322  TRP322      0.0810
    157  CE3      -23.7340  -24.4760   -1.4640 C.ar  322  TRP322      0.0012
    158  CZ2      -24.8640  -26.8430   -2.5940 C.ar  322  TRP322      0.0191
    159  CZ3      -22.9820  -25.3160   -2.2910 C.ar  322  TRP322      0.0001
    160  CH2      -23.5540  -26.4880   -2.8500 C.ar  322  TRP322      0.0015
    161  N        -12.1080  -26.8940   -1.2350 N.3   349  GLU349     -0.1245
    162  CA       -13.1660  -26.2200   -1.9680 C.3   349  GLU349      0.1567
    163  C        -13.8450  -25.2170   -1.0730 C.2   349  GLU349      0.2260
    164  O        -14.1520  -25.5070    0.0810 O.2   349  GLU349     -0.2867
    165  CB       -14.2580  -27.1900   -2.4300 C.3   349  GLU349      0.0388
    166  CG       -13.8010  -28.2090   -3.4570 C.3   349  GLU349      0.1160
    167  CD       -14.9260  -29.0200   -3.9860 C.2   349  GLU349      0.3649
    168  OE1      -16.1070  -28.6480   -3.7680 O.co2 349  GLU349     -0.2457
    169  OE2      -14.6230  -30.0420   -4.6150 O.co2 349  GLU349     -0.2457
    170  N        -13.6200  -23.0700   -5.2730 N.3   396  TRP396     -0.1241
    171  CA       -14.4590  -23.7540   -6.2290 C.3   396  TRP396      0.1605
    172  C        -15.3160  -22.6840   -6.8690 C.2   396  TRP396      0.2264
    173  O        -16.1050  -22.0540   -6.1670 O.2   396  TRP396     -0.2867
    174  CB       -15.4020  -24.7890   -5.5830 C.3   396  TRP396      0.0550
    175  CG       -16.1210  -25.5530   -6.6640 C.ar  396  TRP396      0.0003
    176  CD1      -17.3180  -25.2400   -7.2380 C.ar  396  TRP396      0.0946
    177  CD2      -15.6310  -26.7020   -7.3550 C.ar  396  TRP396      0.0152
    178  NE1      -17.6190  -26.1380   -8.2520 N.ar  396  TRP396     -0.2442
    179  CE2      -16.5980  -27.0480   -8.3400 C.ar  396  TRP396      0.0810
    180  CE3      -14.4880  -27.4970   -7.2190 C.ar  396  TRP396      0.0012
    181  CZ2      -16.4510  -28.1490   -9.1770 C.ar  396  TRP396      0.0191
    182  CZ3      -14.3400  -28.5900   -8.0610 C.ar  396  TRP396      0.0001
    183  CH2      -15.3240  -28.9080   -9.0200 C.ar  396  TRP396      0.0015
    184  N        -23.0180  -28.3710  -13.0160 N.3   403  GLU403     -0.1231
    185  CA       -23.1930  -28.5080  -11.5720 C.3   403  GLU403      0.1699
    186  C        -24.0760  -29.7120  -11.2200 C.2   403  GLU403      0.2592
    187  O        -25.1330  -29.5920  -10.5730 O.2   403  GLU403     -0.2718
    188  CB       -23.6660  -27.1970  -10.9370 C.3   403  GLU403      0.0402
    189  CG       -24.0580  -27.3050   -9.4500 C.3   403  GLU403      0.1161
    190  CD       -22.9280  -27.7790   -8.5120 C.2   403  GLU403      0.3649
    191  OE1      -21.7180  -27.6250   -8.8180 O.co2 403  GLU403     -0.2457
    192  OE2      -23.2680  -28.2870   -7.4150 O.co2 403  GLU403     -0.2457
    193  N        -23.6280  -30.8810  -11.6720 N.am  404  TRP404     -0.1976
    194  CA       -24.2620  -32.1720  -11.3540 C.3   404  TRP404      0.1640
    195  C        -25.7870  -32.1870  -11.6080 C.2   404  TRP404      0.2290
    196  O        -26.2100  -31.8800  -12.7170 O.2   404  TRP404     -0.2864
    197  CB       -23.8780  -32.6130   -9.9400 C.3   404  TRP404      0.0576
    198  CG       -22.3800  -32.5740   -9.6600 C.ar  404  TRP404      0.0006
    199  CD1      -21.7380  -31.7280   -8.7890 C.ar  404  TRP404      0.0946
    200  CD2      -21.3500  -33.4110  -10.2320 C.ar  404  TRP404      0.0152
    201  NE1      -20.3830  -31.9880   -8.7880 N.ar  404  TRP404     -0.2442
    202  CE2      -20.1180  -33.0060   -9.6700 C.ar  404  TRP404      0.0810
    203  CE3      -21.3450  -34.4510  -11.1850 C.ar  404  TRP404      0.0012
    204  CZ2      -18.9070  -33.6370   -9.9880 C.ar  404  TRP404      0.0191
    205  CZ3      -20.1350  -35.0590  -11.5160 C.ar  404  TRP404      0.0001
    206  CH2      -18.9310  -34.6470  -10.9230 C.ar  404  TRP404      0.0015
    207  N        -20.4760  -21.3030  -10.4960 N.3   412  PHE412     -0.1241
    208  CA       -19.6180  -21.2770   -9.3080 C.3   412  PHE412      0.1605
    209  C        -18.2830  -20.6200   -9.6320 C.2   412  PHE412      0.2264
    210  O        -17.5110  -20.3090   -8.7300 O.2   412  PHE412     -0.2867
    211  CB       -19.3490  -22.7140   -8.7740 C.3   412  PHE412      0.0534
    212  CG       -20.3660  -23.2010   -7.7660 C.ar  412  PHE412     -0.0203
    213  CD1      -21.5040  -23.8980   -8.1810 C.ar  412  PHE412     -0.0042
    214  CD2      -20.1860  -22.9720   -6.4040 C.ar  412  PHE412     -0.0042
    215  CE1      -22.4370  -24.3430   -7.2630 C.ar  412  PHE412     -0.0003
    216  CE2      -21.1200  -23.4230   -5.4730 C.ar  412  PHE412     -0.0003
    217  CZ       -22.2550  -24.1000   -5.9080 C.ar  412  PHE412     -0.0000
@<TRIPOS>BOND
     1     4     3    2
     2     3     2    1
     3     1     2    1
     4     2     5    1
     5     5     6    1
     6   184   185    1
     7   196   195    2
     8     6     7    1
     9   193   194    1
    10   193   186   am
    11   195   194    1
    12   185   186    1
    13   185   188    1
    14   205   203   ar
    15   205   206   ar
    16   194   197    1
    17   186   187    2
    18   203   200   ar
    19     7     9   am
    20     7     8    2
    21   188   189    1
    22   206   204   ar
    23   207   208    1
    24    23    22    2
    25    22    21    1
    26   200   202   ar
    27   200   198   ar
    28   204   202   ar
    29   197   198    1
    30    13    12    2
    31   202   201   ar
    32   198   199   ar
    33   209   208    1
    34   209   210    2
    35   189   190    1
    36   208   211    1
    37   181   183   ar
    38   181   179   ar
    39   183   182   ar
    40    12    20   am
    41    12    11    1
    42    21    20    1
    43    21    24    1
    44   191   190   ar
    45   199   201   ar
    46   211   212    1
    47    24    25    1
    48    14    11    1
    49    14    15    1
    50   190   192   ar
    51    10    11    1
    52   179   178   ar
    53   179   177   ar
    54   178   176   ar
    55   213   212   ar
    56   213   215   ar
    57   182   180   ar
    58    15    17   ar
    59    15    16   ar
    60    17    19   ar
    61   212   214   ar
    62    30    27   ar
    63    30    32   ar
    64    16    18   ar
    65    19    18   ar
    66   177   180   ar
    67   177   175   ar
    68    25    27   ar
    69    25    26   ar
    70   215   217   ar
    71   176   175   ar
    72   172   171    1
    73   172   173    2
    74    27    29   ar
    75    32    33   ar
    76   175   174    1
    77   214   216   ar
    78    26    28   ar
    79   171   174    1
    80   171   170    1
    81   217   216   ar
    82    29    28   ar
    83    29    31   ar
    84    33    31   ar
    85   169   167   ar
    86    41    39   am
    87    38    39    1
    88    38    35    1
    89    39    40    2
    90   167   168   ar
    91   167   166    1
    92   130   129    1
    93   166   165    1
    94    34    35    1
    95    37    36    2
    96    35    36    1
    97    70    69    1
    98   160   158   ar
    99   160   159   ar
   100   127   129   ar
   101   127   125   ar
   102   129   128   ar
   103   158   156   ar
   104    36    42   am
   105   165   162    1
   106   159   157   ar
   107    68    67    2
   108    49    48   ar
   109   162   161    1
   110   162   163    1
   111    67    66    1
   112   156   155   ar
   113   156   154   ar
   114   125   124   ar
   115    69    66    1
   116    69    71    1
   117   157   154   ar
   118   128   126   ar
   119    48    50   ar
   120    48    47    1
   121   155   153   ar
   122   118   116   am
   123    42    43    1
   124   154   152   ar
   125    45    44    2
   126   163   164    2
   127    66    65    1
   128    46    47    1
   129    46    43    1
   130    44    43    1
   131   153   152   ar
   132   124   126   ar
   133   124   123    1
   134   117   116    2
   135   116   115    1
   136   152   151    1
   137   147   148    1
   138    65    53   am
   139   151   148    1
   140   115   112    1
   141   123   120    1
   142   148   149    1
   143    53    54    2
   144    53    52    1
   145   150   149    2
   146    51    52    1
   147   112   113    1
   148   112   111    1
   149   120   119    1
   150   120   121    1
   151    76    77    1
   152    76    73    1
   153    78    77    2
   154    63    61   ar
   155    63    64   ar
   156    52    55    1
   157    61    58   ar
   158    77    79   am
   159   113   114    2
   160   122   121    2
   161    72    73    1
   162   121   131   am
   163    73    74    1
   164    64    62   ar
   165    55    56    1
   166   135   136    1
   167   135   132    1
   168    58    56   ar
   169    58    60   ar
   170   131   132    1
   171    56    57   ar
   172    62    60   ar
   173    60    59   ar
   174   132   133    1
   175    74    80   am
   176    74    75    2
   177    80    81    1
   178   145   146   ar
   179   145   143   ar
   180    57    59   ar
   181    83    82    2
   182   146   144   ar
   183    87    85   am
   184   133   134    2
   185   143   142   ar
   186    82    81    1
   187    82    88   am
   188    81    84    1
   189   109   108    2
   190   106   105    2
   191   144   142   ar
   192    85    84    1
   193    85    86    2
   194    88    89    1
   195   142   141    1
   196    89    90    1
   197   108   107    1
   198   108   110   am
   199   105   104    1
   200   104   107    1
   201   104   103    1
   202   141   138    1
   203   102   100   ar
   204   102   101   ar
   205    90    91    2
   206   137   138    1
   207   100    98   ar
   208   138   139    1
   209   101    99   ar
   210    98    97   ar
   211   139   140    2
   212    99    97   ar
   213    97    96    1
   214    92    93    1
   215    93    96    1
   216    93    94    1
   217    94    95    2
