@<TRIPOS>MOLECULE
tmp/2j7dA00.pdb
 178 179 0 0 0
SMALL
GASTEIGER

@<TRIPOS>ATOM
      1  N          2.8890   13.9320    0.6990 N.3    18  GLN18      -0.1245
      2  CA         1.5870   13.3170    0.4720 C.3    18  GLN18       0.1566
      3  C          0.7590   13.9790   -0.6550 C.2    18  GLN18       0.2260
      4  O         -0.0400   13.2970   -1.3160 O.2    18  GLN18      -0.2867
      5  CB         0.7940   13.2570    1.7750 C.3    18  GLN18       0.0367
      6  CG         1.3770   12.3000    2.7570 C.3    18  GLN18       0.0905
      7  CD         0.5810   12.1960    4.0490 C.2    18  GLN18       0.2608
      8  OE1        0.7800   12.9760    4.9910 O.2    18  GLN18      -0.2717
      9  NE2       -0.2900   11.2100    4.1160 N.am   18  GLN18      -0.0878
     10  N          7.6410   16.8820    8.2490 N.3   119  HIS119     -0.1226
     11  CA         6.6050   15.8490    8.2080 C.3   119  HIS119      0.1752
     12  C          7.1320   14.6860    7.3950 C.2   119  HIS119      0.2596
     13  O          6.4670   14.2110    6.4590 O.2   119  HIS119     -0.2718
     14  CB         5.3020   16.3890    7.6190 C.3   119  HIS119      0.0759
     15  CG         4.0710   15.5910    7.9720 C.ar  119  HIS119      0.0818
     16  ND1        2.9560   16.1680    8.5390 N.ar  119  HIS119     -0.2268
     17  CD2        3.7560   14.2850    7.7770 C.ar  119  HIS119      0.1154
     18  CE1        2.0150   15.2510    8.6990 C.ar  119  HIS119      0.1986
     19  NE2        2.4750   14.0990    8.2420 N.ar  119  HIS119     -0.2212
     20  N          8.3390   14.2290    7.7630 N.am  120  TRP120     -0.1976
     21  CA         8.8410   12.8600    7.4120 C.3   120  TRP120      0.1640
     22  C          9.7050   12.7320    6.1610 C.2   120  TRP120      0.2290
     23  O         10.3600   11.7070    5.9570 O.2   120  TRP120     -0.2864
     24  CB         7.7040   11.8460    7.3180 C.3   120  TRP120      0.0576
     25  CG         6.8310   11.7770    8.5240 C.ar  120  TRP120      0.0006
     26  CD1        6.9430   12.5070    9.6920 C.ar  120  TRP120      0.0946
     27  CD2        5.7090   10.9100    8.6950 C.ar  120  TRP120      0.0152
     28  NE1        5.9400   12.1490   10.5720 N.ar  120  TRP120     -0.2442
     29  CE2        5.1640   11.1750    9.9840 C.ar  120  TRP120      0.0810
     30  CE3        5.0760    9.9580    7.8660 C.ar  120  TRP120      0.0012
     31  CZ2        4.0400   10.5000   10.4720 C.ar  120  TRP120      0.0191
     32  CZ3        3.9640    9.2680    8.3690 C.ar  120  TRP120      0.0001
     33  CH2        3.4580    9.5470    9.6500 C.ar  120  TRP120      0.0015
     34  N          6.2910   16.6280   13.1330 N.3   163  ASN163     -0.1225
     35  CA         5.0880   15.8170   13.1360 C.3   163  ASN163      0.1785
     36  C          5.4060   14.4190   13.6020 C.2   163  ASN163      0.2597
     37  O          6.1620   13.7140   12.9350 O.2   163  ASN163     -0.2718
     38  CB         4.4570   15.7030   11.7400 C.3   163  ASN163      0.1169
     39  CG         3.1320   14.9310   11.7660 C.2   163  ASN163      0.2627
     40  OD1        2.1550   15.4020   12.3520 O.2   163  ASN163     -0.2716
     41  ND2        3.1010   13.7340   11.1540 N.am  163  ASN163     -0.0877
     42  N          4.8100   14.0230   14.7310 N.am  164  GLU164     -0.1979
     43  CA         4.8100   12.6400   15.2100 C.3   164  GLU164      0.1602
     44  C          6.1980   11.9840   15.2990 C.2   164  GLU164      0.2287
     45  O          6.4540   10.9900   14.6120 O.2   164  GLU164     -0.2864
     46  CB         3.8410   11.8030   14.3820 C.3   164  GLU164      0.0415
     47  CG         2.4110   12.3660   14.4320 C.3   164  GLU164      0.1163
     48  CD         1.4030   11.4780   13.6950 C.2   164  GLU164      0.3649
     49  OE1        1.8460   10.5810   12.9350 O.co2 164  GLU164     -0.2457
     50  OE2        0.1790   11.6750   13.9000 O.co2 164  GLU164     -0.2457
     51  N          7.3990   10.0040   17.4360 N.3   166  TRP166     -0.1227
     52  CA         7.2510    8.5820   17.7510 C.3   166  TRP166      0.1737
     53  C          7.1610    7.7350   16.4780 C.2   166  TRP166      0.2595
     54  O          7.7780    6.6820   16.3810 O.2   166  TRP166     -0.2718
     55  CB         6.0230    8.3170   18.6360 C.3   166  TRP166      0.0564
     56  CG         5.8440    6.8680   18.9880 C.ar  166  TRP166      0.0003
     57  CD1        6.3340    6.2310   20.0910 C.ar  166  TRP166      0.0946
     58  CD2        5.1610    5.8570   18.2050 C.ar  166  TRP166      0.0152
     59  NE1        5.9750    4.8830   20.0600 N.ar  166  TRP166     -0.2442
     60  CE2        5.2670    4.6320   18.9110 C.ar  166  TRP166      0.0810
     61  CE3        4.4650    5.8720   16.9790 C.ar  166  TRP166      0.0012
     62  CZ2        4.7040    3.4290   18.4370 C.ar  166  TRP166      0.0191
     63  CZ3        3.9050    4.6510   16.4960 C.ar  166  TRP166      0.0001
     64  CH2        4.0230    3.4570   17.2430 C.ar  166  TRP166      0.0015
     65  N          6.3880    8.1920   15.5040 N.am  167  VAL167     -0.1980
     66  CA         6.2410    7.4610   14.2410 C.3   167  VAL167      0.1595
     67  C          7.5700    7.5170   13.4680 C.2   167  VAL167      0.2287
     68  O          8.0840    6.4950   13.0230 O.2   167  VAL167     -0.2864
     69  CB         5.0400    8.0100   13.3820 C.3   167  VAL167      0.0276
     70  CG1        4.9530    7.2760   12.0590 C.3   167  VAL167      0.0022
     71  CG2        3.6990    7.8890   14.1410 C.3   167  VAL167      0.0022
     72  N          1.3070   12.0260   17.8380 N.3   220  ASN220     -0.1225
     73  CA         0.2290   11.0340   17.7040 C.3   220  ASN220      0.1785
     74  C         -0.2140   10.4940   19.0790 C.2   220  ASN220      0.2597
     75  O          0.6010   10.3150   20.0080 O.2   220  ASN220     -0.2718
     76  CB         0.6630    9.8430   16.8240 C.3   220  ASN220      0.1169
     77  CG         1.9820    9.1990   17.2900 C.2   220  ASN220      0.2627
     78  OD1        3.0570    9.7650   17.1010 O.2   220  ASN220     -0.2716
     79  ND2        1.8940    7.9980   17.8890 N.am  220  ASN220     -0.0877
     80  N         -1.5080   10.2280   19.1900 N.am  221  ASN221     -0.1974
     81  CA        -2.1090    9.6990   20.4230 C.3   221  ASN221      0.1688
     82  C         -3.2020    8.7080   20.0930 C.2   221  ASN221      0.2292
     83  O         -3.9620    8.9260   19.1570 O.2   221  ASN221     -0.2864
     84  CB        -2.6860   10.8220   21.3010 C.3   221  ASN221      0.1181
     85  CG        -1.7410   11.9740   21.4650 C.2   221  ASN221      0.2629
     86  OD1       -0.9570   12.0270   22.4270 O.2   221  ASN221     -0.2716
     87  ND2       -1.7880   12.9100   20.5150 N.am  221  ASN221     -0.0877
     88  N         -2.5180   14.9990   17.6150 N.3   287  ASN287     -0.1240
     89  CA        -3.2460   14.2930   16.5810 C.3   287  ASN287      0.1653
     90  C         -4.0110   13.1480   17.2650 C.2   287  ASN287      0.2266
     91  O         -3.4980   12.5190   18.1940 O.2   287  ASN287     -0.2867
     92  CB        -2.2860   13.7180   15.5170 C.3   287  ASN287      0.1155
     93  CG        -1.5170   14.7880   14.7370 C.2   287  ASN287      0.2627
     94  OD1       -1.8170   15.9770   14.7840 O.2   287  ASN287     -0.2716
     95  ND2       -0.5230   14.3430   13.9880 N.am  287  ASN287     -0.0877
     96  N         -6.9960    9.8290   16.3040 N.3   289  TYR289     -0.1241
     97  CA        -7.7910    9.1220   15.2970 C.3   289  TYR289      0.1605
     98  C         -8.5810    7.9590   15.8660 C.2   289  TYR289      0.2264
     99  O         -9.6960    7.6820   15.4130 O.2   289  TYR289     -0.2867
    100  CB        -6.8920    8.5500   14.1880 C.3   289  TYR289      0.0534
    101  CG        -6.2510    9.6020   13.2860 C.ar  289  TYR289     -0.0201
    102  CD1       -5.1290   10.3130   13.6930 C.ar  289  TYR289     -0.0009
    103  CD2       -6.7930    9.8870   12.0340 C.ar  289  TYR289     -0.0009
    104  CE1       -4.5550   11.2740   12.8630 C.ar  289  TYR289      0.0417
    105  CE2       -6.2300   10.8260   11.2140 C.ar  289  TYR289      0.0417
    106  CZ        -5.1120   11.5120   11.6310 C.ar  289  TYR289      0.1957
    107  OH        -4.5550   12.4270   10.7940 O.3   289  TYR289     -0.2866
    108  N         -9.3730    1.0640   11.9300 N.3   316  TRP316     -0.1241
    109  CA        -9.2210    1.7740   13.1940 C.3   316  TRP316      0.1605
    110  C        -10.5730    1.9500   13.8650 C.2   316  TRP316      0.2264
    111  O        -11.5060    2.5110   13.2800 O.2   316  TRP316     -0.2867
    112  CB        -8.6060    3.1730   12.9740 C.3   316  TRP316      0.0550
    113  CG        -7.2150    3.1610   12.3870 C.ar  316  TRP316      0.0003
    114  CD1       -6.3860    2.0870   12.2710 C.ar  316  TRP316      0.0946
    115  CD2       -6.4830    4.2860   11.8870 C.ar  316  TRP316      0.0152
    116  NE1       -5.1990    2.4570   11.7010 N.ar  316  TRP316     -0.2442
    117  CE2       -5.2280    3.8040   11.4520 C.ar  316  TRP316      0.0810
    118  CE3       -6.7780    5.6530   11.7310 C.ar  316  TRP316      0.0012
    119  CZ2       -4.2540    4.6400   10.8870 C.ar  316  TRP316      0.0191
    120  CZ3       -5.8110    6.4870   11.1660 C.ar  316  TRP316      0.0001
    121  CH2       -4.5600    5.9730   10.7510 C.ar  316  TRP316      0.0015
    122  N         -4.5120   17.2050   13.8770 N.3   343  GLU343     -0.1245
    123  CA        -5.0530   16.2420   12.9200 C.3   343  GLU343      0.1567
    124  C         -6.1650   15.4570   13.5970 C.2   343  GLU343      0.2260
    125  O         -6.0110   15.0360   14.7340 O.2   343  GLU343     -0.2867
    126  CB        -3.9960   15.2190   12.4350 C.3   343  GLU343      0.0388
    127  CG        -2.8320   15.7550   11.6330 C.3   343  GLU343      0.1160
    128  CD        -1.9000   14.6540   11.1440 C.2   343  GLU343      0.3649
    129  OE1       -2.3050   13.4740   11.1000 O.co2 343  GLU343     -0.2457
    130  OE2       -0.7600   14.9760   10.7710 O.co2 343  GLU343     -0.2457
    131  N         -7.6900   16.2550    9.2260 N.3   390  TRP390     -0.1241
    132  CA        -6.8410   15.5110    8.2900 C.3   390  TRP390      0.1605
    133  C         -7.7770   14.7630    7.3440 C.2   390  TRP390      0.2264
    134  O         -8.5060   13.8900    7.8090 O.2   390  TRP390     -0.2867
    135  CB        -5.8740   14.5180    8.9820 C.3   390  TRP390      0.0550
    136  CG        -4.9880   13.8960    7.9220 C.ar  390  TRP390      0.0003
    137  CD1       -5.2580   12.7900    7.1800 C.ar  390  TRP390      0.0946
    138  CD2       -3.7410   14.4130    7.4370 C.ar  390  TRP390      0.0152
    139  NE1       -4.2340   12.5620    6.2680 N.ar  390  TRP390     -0.2442
    140  CE2       -3.2990   13.5530    6.4050 C.ar  390  TRP390      0.0810
    141  CE3       -2.9420   15.5110    7.7880 C.ar  390  TRP390      0.0012
    142  CZ2       -2.0900   13.7570    5.7170 C.ar  390  TRP390      0.0191
    143  CZ3       -1.7360   15.7000    7.1160 C.ar  390  TRP390      0.0001
    144  CH2       -1.3280   14.8300    6.0820 C.ar  390  TRP390      0.0015
    145  N         -1.0980    7.9590    1.1170 N.3   397  GLU397     -0.1231
    146  CA        -1.1990    7.5640    2.5120 C.3   397  GLU397      0.1699
    147  C         -0.0450    6.6210    2.8770 C.2   397  GLU397      0.2592
    148  O         -0.2450    5.4620    3.2760 O.2   397  GLU397     -0.2718
    149  CB        -2.5930    6.9920    2.8410 C.3   397  GLU397      0.0402
    150  CG        -2.7760    6.4830    4.2880 C.3   397  GLU397      0.1161
    151  CD        -2.3970    7.5000    5.3520 C.2   397  GLU397      0.3649
    152  OE1       -2.7440    8.6970    5.1840 O.co2 397  GLU397     -0.2457
    153  OE2       -1.8010    7.0910    6.3890 O.co2 397  GLU397     -0.2457
    154  N          1.1700    7.1410    2.6940 N.am  398  TRP398     -0.1976
    155  CA         2.4050    6.4690    3.1230 C.3   398  TRP398      0.1640
    156  C          2.4390    5.0250    2.5780 C.2   398  TRP398      0.2290
    157  O          2.2600    4.8180    1.3800 O.2   398  TRP398     -0.2864
    158  CB         2.5730    6.6100    4.6540 C.3   398  TRP398      0.0576
    159  CG         2.4960    8.0690    5.1070 C.ar  398  TRP398      0.0006
    160  CD1        1.5440    8.6280    5.9030 C.ar  398  TRP398      0.0946
    161  CD2        3.3800    9.1490    4.7180 C.ar  398  TRP398      0.0152
    162  NE1        1.7890    9.9760    6.0670 N.ar  398  TRP398     -0.2442
    163  CE2        2.9080   10.3240    5.3480 C.ar  398  TRP398      0.0810
    164  CE3        4.5240    9.2330    3.9030 C.ar  398  TRP398      0.0012
    165  CZ2        3.5440   11.5730    5.1980 C.ar  398  TRP398      0.0191
    166  CZ3        5.1650   10.4830    3.7660 C.ar  398  TRP398      0.0001
    167  CH2        4.6620   11.6330    4.4070 C.ar  398  TRP398      0.0015
    168  N         -8.5200   10.0480    3.0240 N.3   406  PHE406     -0.1241
    169  CA        -8.8530   10.8230    4.2100 C.3   406  PHE406      0.1605
    170  C         -9.3850   12.2320    3.9230 C.2   406  PHE406      0.2264
    171  O         -9.6100   12.9900    4.8570 O.2   406  PHE406     -0.2867
    172  CB        -7.6150   11.0060    5.0810 C.3   406  PHE406      0.0534
    173  CG        -7.2720    9.8350    5.9500 C.ar  406  PHE406     -0.0203
    174  CD1       -6.4400    8.8080    5.4760 C.ar  406  PHE406     -0.0042
    175  CD2       -7.7210    9.7910    7.2680 C.ar  406  PHE406     -0.0042
    176  CE1       -6.0710    7.7470    6.3140 C.ar  406  PHE406     -0.0003
    177  CE2       -7.3630    8.7260    8.1220 C.ar  406  PHE406     -0.0003
    178  CZ        -6.5280    7.7130    7.6480 C.ar  406  PHE406     -0.0000
@<TRIPOS>BOND
     1     4     3    2
     2     3     2    1
     3     2     1    1
     4     2     5    1
     5   145   146    1
     6   157   156    2
     7     5     6    1
     8   146   149    1
     9   146   147    1
    10   156   155    1
    11   154   147   am
    12   154   155    1
    13     6     7    1
    14   149   150    1
    15   147   148    2
    16   168   169    1
    17   155   158    1
    18   166   164   ar
    19   166   167   ar
    20   164   161   ar
    21   170   169    1
    22   170   171    2
    23     7     9   am
    24     7     8    2
    25   169   172    1
    26   150   151    1
    27   167   165   ar
    28   158   159    1
    29   161   159   ar
    30   161   163   ar
    31   172   173    1
    32   159   160   ar
    33   152   151   ar
    34   165   163   ar
    35   163   162   ar
    36   151   153   ar
    37   174   173   ar
    38   174   176   ar
    39   142   144   ar
    40   142   140   ar
    41   160   162   ar
    42   173   175   ar
    43    23    22    2
    44   144   143   ar
    45    22    21    1
    46   139   140   ar
    47   139   137   ar
    48   176   178   ar
    49   140   138   ar
    50    13    12    2
    51   143   141   ar
    52   137   136   ar
    53   175   177   ar
    54    24    21    1
    55    24    25    1
    56   133   134    2
    57   133   132    1
    58    12    20   am
    59    12    11    1
    60    21    20    1
    61   138   141   ar
    62   138   136   ar
    63    14    15    1
    64    14    11    1
    65   178   177   ar
    66    17    15   ar
    67    17    19   ar
    68    30    32   ar
    69    30    27   ar
    70   136   135    1
    71    15    16   ar
    72    11    10    1
    73    19    18   ar
    74   132   135    1
    75   132   131    1
    76    32    33   ar
    77    25    27   ar
    78    25    26   ar
    79    16    18   ar
    80    27    29   ar
    81    33    31   ar
    82    26    28   ar
    83    29    31   ar
    84    29    28   ar
    85   121   119   ar
    86   121   120   ar
    87   130   128   ar
    88   107   106    1
    89   119   117   ar
    90   129   128   ar
    91   128   127    1
    92    41    39   am
    93   120   118   ar
    94   105   106   ar
    95   105   103   ar
    96   117   116   ar
    97   117   115   ar
    98   106   104   ar
    99   127   126    1
   100   116   114   ar
   101   118   115   ar
   102    38    39    1
   103    38    35    1
   104    39    40    2
   105   115   113   ar
   106   108   109    1
   107   103   101   ar
   108    70    69    1
   109   114   113   ar
   110   113   112    1
   111   126   123    1
   112   104   102   ar
   113   123   124    1
   114   123   122    1
   115    49    48   ar
   116    37    36    2
   117   112   109    1
   118    68    67    2
   119    34    35    1
   120    35    36    1
   121   109   110    1
   122   111   110    2
   123   101   102   ar
   124   101   100    1
   125    69    71    1
   126    69    66    1
   127    67    66    1
   128   124   125    2
   129    36    42   am
   130    48    50   ar
   131    48    47    1
   132    95    93   am
   133   100    97    1
   134    66    65    1
   135    46    47    1
   136    46    43    1
   137    45    44    2
   138    42    43    1
   139    93    94    2
   140    93    92    1
   141    43    44    1
   142    97    98    1
   143    97    96    1
   144    99    98    2
   145    65    53   am
   146    92    89    1
   147    54    53    2
   148    53    52    1
   149    63    61   ar
   150    63    64   ar
   151    89    90    1
   152    89    88    1
   153    76    77    1
   154    76    73    1
   155    61    58   ar
   156    78    77    2
   157    64    62   ar
   158    90    91    2
   159    77    79   am
   160    51    52    1
   161    73    72    1
   162    73    74    1
   163    52    55    1
   164    58    60   ar
   165    58    56   ar
   166    62    60   ar
   167    55    56    1
   168    60    59   ar
   169    56    57   ar
   170    74    80   am
   171    74    75    2
   172    83    82    2
   173    80    81    1
   174    59    57   ar
   175    82    81    1
   176    81    84    1
   177    87    85   am
   178    84    85    1
   179    85    86    2
