@<TRIPOS>MOLECULE
tmp/2j7eA00.pdb
 203 202 0 0 0
SMALL
GASTEIGER

@<TRIPOS>ATOM
      1  N          2.9030   13.8140    0.6840 N.3    18  GLN18      -0.1245
      2  CA         1.5990   13.2160    0.4320 C.3    18  GLN18       0.1566
      3  C          0.7850   13.8930   -0.6920 C.2    18  GLN18       0.2260
      4  O         -0.0220   13.2350   -1.3510 O.2    18  GLN18      -0.2867
      5  CB         0.7950   13.1340    1.7180 C.3    18  GLN18       0.0367
      6  CG         1.4010   12.2130    2.7200 C.3    18  GLN18       0.0905
      7  CD         0.6100   12.1350    4.0170 C.2    18  GLN18       0.2608
      8  OE1        0.8150   12.9460    4.9340 O.2    18  GLN18      -0.2717
      9  NE2       -0.2500   11.1270    4.1280 N.am   18  GLN18      -0.0878
     10  N          7.7010   16.8470    8.2240 N.3   119  HIS119     -0.1226
     11  CA         6.6620   15.8220    8.1870 C.3   119  HIS119      0.1752
     12  C          7.2110   14.6560    7.3700 C.2   119  HIS119      0.2596
     13  O          6.5760   14.2280    6.3920 O.2   119  HIS119     -0.2718
     14  CB         5.3730   16.3860    7.5940 C.3   119  HIS119      0.0759
     15  CG         4.1270   15.6080    7.9310 C.ar  119  HIS119      0.0818
     16  ND1        3.0040   16.2080    8.4620 N.ar  119  HIS119     -0.2268
     17  CD2        3.8080   14.2990    7.7570 C.ar  119  HIS119      0.1154
     18  CE1        2.0580   15.2970    8.6330 C.ar  119  HIS119      0.1986
     19  NE2        2.5170   14.1320    8.2040 N.ar  119  HIS119     -0.2212
     20  N          8.4020   14.1600    7.7710 N.am  120  TRP120     -0.1976
     21  CA         8.8770   12.7750    7.4370 C.3   120  TRP120      0.1640
     22  C          9.6990   12.6400    6.1500 C.2   120  TRP120      0.2290
     23  O         10.3150   11.6020    5.9250 O.2   120  TRP120     -0.2864
     24  CB         7.7270   11.7660    7.3620 C.3   120  TRP120      0.0576
     25  CG         6.8500   11.6720    8.5820 C.ar  120  TRP120      0.0006
     26  CD1        6.9400   12.4110    9.7530 C.ar  120  TRP120      0.0946
     27  CD2        5.6950   10.8460    8.7210 C.ar  120  TRP120      0.0152
     28  NE1        5.9250   12.0540   10.6160 N.ar  120  TRP120     -0.2442
     29  CE2        5.1440   11.1010   10.0040 C.ar  120  TRP120      0.0810
     30  CE3        5.0600    9.9100    7.8820 C.ar  120  TRP120      0.0012
     31  CZ2        4.0000   10.4370   10.4670 C.ar  120  TRP120      0.0191
     32  CZ3        3.9330    9.2490    8.3580 C.ar  120  TRP120      0.0001
     33  CH2        3.4170    9.5200    9.6240 C.ar  120  TRP120      0.0015
     34  N          6.3490   16.5840   13.1330 N.3   163  ASN163     -0.1225
     35  CA         5.1410   15.7610   13.1210 C.3   163  ASN163      0.1785
     36  C          5.4560   14.3870   13.6370 C.2   163  ASN163      0.2597
     37  O          6.1980   13.6500   12.9970 O.2   163  ASN163     -0.2718
     38  CB         4.5650   15.5820   11.7020 C.3   163  ASN163      0.1169
     39  CG         3.2300   14.7990   11.7050 C.2   163  ASN163      0.2627
     40  OD1        2.2370   15.2700   12.2510 O.2   163  ASN163     -0.2716
     41  ND2        3.2210   13.6020   11.1080 N.am  163  ASN163     -0.0877
     42  N          4.8490   14.0260   14.7610 N.am  164  GLU164     -0.1979
     43  CA         4.8280   12.6530   15.2590 C.3   164  GLU164      0.1602
     44  C          6.2100   11.9890   15.3270 C.2   164  GLU164      0.2287
     45  O          6.4560   11.0160   14.6230 O.2   164  GLU164     -0.2864
     46  CB         3.8310   11.8160   14.4540 C.3   164  GLU164      0.0415
     47  CG         2.4520   12.4320   14.4550 C.3   164  GLU164      0.1163
     48  CD         1.3960   11.5710   13.7770 C.2   164  GLU164      0.3649
     49  OE1        1.7350   10.6970   12.9220 O.co2 164  GLU164     -0.2457
     50  OE2        0.2160   11.7720   14.1430 O.co2 164  GLU164     -0.2457
     51  N          7.3670    9.9640   17.3660 N.3   166  TRP166     -0.1227
     52  CA         7.1980    8.5460   17.6840 C.3   166  TRP166      0.1737
     53  C          7.1610    7.7010   16.4230 C.2   166  TRP166      0.2595
     54  O          7.8320    6.6930   16.3440 O.2   166  TRP166     -0.2718
     55  CB         5.9260    8.2780   18.5170 C.3   166  TRP166      0.0564
     56  CG         5.7880    6.8160   18.8830 C.ar  166  TRP166      0.0003
     57  CD1        6.3170    6.1960   19.9650 C.ar  166  TRP166      0.0946
     58  CD2        5.1150    5.7970   18.1200 C.ar  166  TRP166      0.0152
     59  NE1        6.0020    4.8330   19.9430 N.ar  166  TRP166     -0.2442
     60  CE2        5.2650    4.5740   18.8180 C.ar  166  TRP166      0.0810
     61  CE3        4.3980    5.8000   16.9140 C.ar  166  TRP166      0.0012
     62  CZ2        4.7360    3.3720   18.3480 C.ar  166  TRP166      0.0191
     63  CZ3        3.8650    4.5910   16.4460 C.ar  166  TRP166      0.0001
     64  CH2        4.0350    3.3970   17.1740 C.ar  166  TRP166      0.0015
     65  N          6.3600    8.1080   15.4450 N.am  167  VAL167     -0.1980
     66  CA         6.2290    7.3950   14.1750 C.3   167  VAL167      0.1595
     67  C          7.5650    7.4060   13.3880 C.2   167  VAL167      0.2287
     68  O          8.0120    6.3780   12.8710 O.2   167  VAL167     -0.2864
     69  CB         5.0760    8.0120   13.3190 C.3   167  VAL167      0.0276
     70  CG1        4.9850    7.3120   11.9700 C.3   167  VAL167      0.0022
     71  CG2        3.7410    7.8840   14.0390 C.3   167  VAL167      0.0022
     72  N          8.1920    3.6510   13.8160 N.3   171  VAL171     -0.1245
     73  CA         7.6970    3.0730   12.5570 C.3   171  VAL171      0.1561
     74  C          8.7590    3.0870   11.4490 C.2   171  VAL171      0.2260
     75  O          8.7620    2.2170   10.5800 O.2   171  VAL171     -0.2867
     76  CB         6.3080    3.7080   12.0750 C.3   171  VAL171      0.0252
     77  CG1        5.7280    2.9740   10.8240 C.3   171  VAL171      0.0019
     78  CG2        5.2770    3.7140   13.2170 C.3   171  VAL171      0.0019
     79  N          8.0190    2.4560    7.5200 N.3   178  HIS178     -0.1241
     80  CA         8.1670    3.7950    6.9330 C.3   178  HIS178      0.1621
     81  C          9.6330    4.0390    6.6290 C.2   178  HIS178      0.2264
     82  O         10.4910    3.4230    7.2560 O.2   178  HIS178     -0.2867
     83  CB         7.6790    4.8470    7.9100 C.3   178  HIS178      0.0745
     84  CG         6.1880    4.9810    7.9520 C.ar  178  HIS178      0.0817
     85  ND1        5.5480    5.9410    8.7080 N.ar  178  HIS178     -0.2268
     86  CD2        5.2080    4.2630    7.3500 C.ar  178  HIS178      0.1154
     87  CE1        4.2410    5.8080    8.5630 C.ar  178  HIS178      0.1986
     88  NE2        4.0080    4.8020    7.7420 N.ar  178  HIS178     -0.2212
     89  N          1.3000   11.9510   17.8210 N.3   220  ASN220     -0.1225
     90  CA         0.2490   10.9550   17.6700 C.3   220  ASN220      0.1785
     91  C         -0.2000   10.4350   19.0470 C.2   220  ASN220      0.2597
     92  O          0.6000   10.3370   20.0100 O.2   220  ASN220     -0.2718
     93  CB         0.7410    9.7680   16.8160 C.3   220  ASN220      0.1169
     94  CG         2.0660    9.1760   17.3210 C.2   220  ASN220      0.2627
     95  OD1        3.1460    9.7430   17.0780 O.2   220  ASN220     -0.2716
     96  ND2        1.9890    8.0280   18.0320 N.am  220  ASN220     -0.0877
     97  N         -1.4890   10.1420   19.1450 N.am  221  ASN221     -0.1974
     98  CA        -2.0800    9.6220   20.3980 C.3   221  ASN221      0.1688
     99  C         -3.1730    8.6150   20.1070 C.2   221  ASN221      0.2292
    100  O         -3.9600    8.8230   19.1970 O.2   221  ASN221     -0.2864
    101  CB        -2.6630   10.7520   21.2520 C.3   221  ASN221      0.1181
    102  CG        -1.7070   11.8910   21.4400 C.2   221  ASN221      0.2629
    103  OD1       -0.8770   11.8880   22.3620 O.2   221  ASN221     -0.2716
    104  ND2       -1.8320   12.8960   20.5840 N.am  221  ASN221     -0.0877
    105  N          3.5030    5.3680   23.3900 N.3   240  ASN240     -0.1240
    106  CA         2.8310    5.7630   22.1390 C.3   240  ASN240      0.1653
    107  C          2.2760    7.1830   22.1220 C.2   240  ASN240      0.2266
    108  O          2.1270    7.7780   21.0300 O.2   240  ASN240     -0.2867
    109  CB         1.6770    4.8160   21.7930 C.3   240  ASN240      0.1155
    110  CG         2.1380    3.4560   21.3200 C.2   240  ASN240      0.2627
    111  OD1        1.9900    3.0890   20.1440 O.2   240  ASN240     -0.2716
    112  ND2        2.6970    2.6940   22.2350 N.am  240  ASN240     -0.0877
    113  N         -2.4980   14.9060   17.5830 N.3   287  ASN287     -0.1240
    114  CA        -3.2120   14.1930   16.5440 C.3   287  ASN287      0.1653
    115  C         -3.9560   13.0320   17.2050 C.2   287  ASN287      0.2266
    116  O         -3.4140   12.3600   18.0750 O.2   287  ASN287     -0.2867
    117  CB        -2.2400   13.6480   15.4710 C.3   287  ASN287      0.1155
    118  CG        -1.4950   14.7510   14.7040 C.2   287  ASN287      0.2627
    119  OD1       -1.7970   15.9360   14.8170 O.2   287  ASN287     -0.2716
    120  ND2       -0.5240   14.3430   13.8990 N.am  287  ASN287     -0.0877
    121  N         -6.9640    9.7320   16.2560 N.3   289  TYR289     -0.1241
    122  CA        -7.7220    8.9960   15.2350 C.3   289  TYR289      0.1605
    123  C         -8.5030    7.8330   15.7940 C.2   289  TYR289      0.2264
    124  O         -9.5900    7.5410   15.3130 O.2   289  TYR289     -0.2867
    125  CB        -6.8000    8.4240   14.1420 C.3   289  TYR289      0.0534
    126  CG        -6.1610    9.4650   13.2610 C.ar  289  TYR289     -0.0201
    127  CD1       -5.0210   10.1500   13.6630 C.ar  289  TYR289     -0.0009
    128  CD2       -6.7120    9.7730   12.0300 C.ar  289  TYR289     -0.0009
    129  CE1       -4.4500   11.1190   12.8410 C.ar  289  TYR289      0.0417
    130  CE2       -6.1470   10.7270   11.2140 C.ar  289  TYR289      0.0417
    131  CZ        -5.0260   11.3910   11.6230 C.ar  289  TYR289      0.1957
    132  OH        -4.4920   12.3180   10.7840 O.3   289  TYR289     -0.2866
    133  N         -9.2720    1.0510   11.9220 N.3   315  TRP315     -0.1241
    134  CA        -9.0910    1.7650   13.1750 C.3   315  TRP315      0.1605
    135  C        -10.4390    1.9230   13.8720 C.2   315  TRP315      0.2264
    136  O        -11.3670    2.5030   13.3150 O.2   315  TRP315     -0.2867
    137  CB        -8.4690    3.1560   12.9530 C.3   315  TRP315      0.0550
    138  CG        -7.0730    3.1500   12.4070 C.ar  315  TRP315      0.0003
    139  CD1       -6.2080    2.0970   12.3740 C.ar  315  TRP315      0.0946
    140  CD2       -6.3650    4.2650   11.8620 C.ar  315  TRP315      0.0152
    141  NE1       -5.0320    2.4680   11.8060 N.ar  315  TRP315     -0.2442
    142  CE2       -5.0900    3.8010   11.4890 C.ar  315  TRP315      0.0810
    143  CE3       -6.6960    5.6110   11.6220 C.ar  315  TRP315      0.0012
    144  CZ2       -4.1230    4.6390   10.8900 C.ar  315  TRP315      0.0191
    145  CZ3       -5.7410    6.4440   11.0340 C.ar  315  TRP315      0.0001
    146  CH2       -4.4710    5.9510   10.6670 C.ar  315  TRP315      0.0015
    147  N         -4.4730   17.1600   13.8500 N.3   342  GLU342     -0.1245
    148  CA        -5.0190   16.1800   12.9100 C.3   342  GLU342      0.1567
    149  C         -6.1110   15.3780   13.5980 C.2   342  GLU342      0.2260
    150  O         -5.9360   14.9600   14.7350 O.2   342  GLU342     -0.2867
    151  CB        -3.9660   15.1710   12.4220 C.3   342  GLU342      0.0388
    152  CG        -2.8260   15.7060   11.5760 C.3   342  GLU342      0.1160
    153  CD        -1.8980   14.6120   11.0960 C.2   342  GLU342      0.3649
    154  OE1       -2.3140   13.4220   11.0500 O.co2 342  GLU342     -0.2457
    155  OE2       -0.7460   14.9490   10.7640 O.co2 342  GLU342     -0.2457
    156  N         -7.5730   16.1710    9.2190 N.3   389  TRP389     -0.1241
    157  CA        -6.7560   15.4140    8.2770 C.3   389  TRP389      0.1605
    158  C         -7.7230   14.6610    7.3910 C.2   389  TRP389      0.2264
    159  O         -8.4050   13.7510    7.8910 O.2   389  TRP389     -0.2867
    160  CB        -5.8170   14.4070    8.9660 C.3   389  TRP389      0.0550
    161  CG        -4.9640   13.7660    7.9270 C.ar  389  TRP389      0.0003
    162  CD1       -5.2450   12.6270    7.1990 C.ar  389  TRP389      0.0946
    163  CD2       -3.7310   14.2790    7.4220 C.ar  389  TRP389      0.0152
    164  NE1       -4.2290   12.4010    6.2810 N.ar  389  TRP389     -0.2442
    165  CE2       -3.2940   13.4040    6.4020 C.ar  389  TRP389      0.0810
    166  CE3       -2.9410   15.3970    7.7430 C.ar  389  TRP389      0.0012
    167  CZ2       -2.0980   13.6080    5.7060 C.ar  389  TRP389      0.0191
    168  CZ3       -1.7520   15.5910    7.0600 C.ar  389  TRP389      0.0001
    169  CH2       -1.3420   14.7000    6.0450 C.ar  389  TRP389      0.0015
    170  N         -1.0970    7.8980    1.1090 N.3   396  GLU396     -0.1231
    171  CA        -1.1610    7.5010    2.5000 C.3   396  GLU396      0.1699
    172  C         -0.0150    6.5460    2.8610 C.2   396  GLU396      0.2592
    173  O         -0.2390    5.3990    3.2710 O.2   396  GLU396     -0.2718
    174  CB        -2.5470    6.9550    2.8610 C.3   396  GLU396      0.0402
    175  CG        -2.6770    6.3920    4.3000 C.3   396  GLU396      0.1161
    176  CD        -2.3330    7.3990    5.3910 C.2   396  GLU396      0.3649
    177  OE1       -2.6070    8.6110    5.2180 O.co2 396  GLU396     -0.2457
    178  OE2       -1.8240    6.9680    6.4500 O.co2 396  GLU396     -0.2457
    179  N          1.2140    7.0470    2.6720 N.am  397  TRP397     -0.1976
    180  CA         2.4410    6.3760    3.0900 C.3   397  TRP397      0.1640
    181  C          2.4880    4.9320    2.5640 C.2   397  TRP397      0.2290
    182  O          2.3140    4.7170    1.3690 O.2   397  TRP397     -0.2864
    183  CB         2.6150    6.5260    4.6130 C.3   397  TRP397      0.0576
    184  CG         2.5520    7.9950    5.0380 C.ar  397  TRP397      0.0006
    185  CD1        1.6110    8.5770    5.8370 C.ar  397  TRP397      0.0946
    186  CD2        3.4440    9.0700    4.6170 C.ar  397  TRP397      0.0152
    187  NE1        1.8730    9.9370    5.9590 N.ar  397  TRP397     -0.2442
    188  CE2        2.9960   10.2560    5.2350 C.ar  397  TRP397      0.0810
    189  CE3        4.5770    9.1330    3.7870 C.ar  397  TRP397      0.0012
    190  CZ2        3.6510   11.4950    5.0620 C.ar  397  TRP397      0.0191
    191  CZ3        5.2340   10.3580    3.6370 C.ar  397  TRP397      0.0001
    192  CH2        4.7570   11.5220    4.2650 C.ar  397  TRP397      0.0015
    193  N         -8.4880    9.9810    3.0170 N.3   405  PHE405     -0.1241
    194  CA        -8.8020   10.7600    4.2120 C.3   405  PHE405      0.1605
    195  C         -9.3390   12.1810    3.9190 C.2   405  PHE405      0.2264
    196  O         -9.6120   12.9330    4.8460 O.2   405  PHE405     -0.2867
    197  CB        -7.5290   10.9570    5.0330 C.3   405  PHE405      0.0534
    198  CG        -7.1700    9.8190    5.9320 C.ar  405  PHE405     -0.0203
    199  CD1       -6.3580    8.7710    5.4740 C.ar  405  PHE405     -0.0042
    200  CD2       -7.5830    9.8230    7.2590 C.ar  405  PHE405     -0.0042
    201  CE1       -5.9890    7.7440    6.3320 C.ar  405  PHE405     -0.0003
    202  CE2       -7.2220    8.8060    8.1180 C.ar  405  PHE405     -0.0003
    203  CZ        -6.4290    7.7610    7.6660 C.ar  405  PHE405     -0.0000
@<TRIPOS>BOND
     1     4     3    2
     2     3     2    1
     3     2     1    1
     4     2     5    1
     5   170   171    1
     6   182   181    2
     7     5     6    1
     8   171   172    1
     9   171   174    1
    10   181   180    1
    11   179   172   am
    12   179   180    1
    13     6     7    1
    14   172   173    2
    15   174   175    1
    16   193   194    1
    17   180   183    1
    18   191   189   ar
    19   191   192   ar
    20   189   186   ar
    21   195   194    1
    22   195   196    2
    23     7     9   am
    24     7     8    2
    25   194   197    1
    26   192   190   ar
    27   175   176    1
    28   183   184    1
    29   186   184   ar
    30   186   188   ar
    31   197   198    1
    32   184   185   ar
    33   190   188   ar
    34   177   176   ar
    35   188   187   ar
    36   176   178   ar
    37   199   198   ar
    38   199   201   ar
    39   167   169   ar
    40   167   165   ar
    41   185   187   ar
    42    23    22    2
    43   198   200   ar
    44   169   168   ar
    45    22    21    1
    46   164   165   ar
    47   164   162   ar
    48   201   203   ar
    49    13    12    2
    50   165   163   ar
    51    81    80    1
    52    81    82    2
    53    80    79    1
    54    80    83    1
    55   168   166   ar
    56   162   161   ar
    57   200   202   ar
    58    86    88   ar
    59    86    84   ar
    60    24    21    1
    61    24    25    1
    62    12    20   am
    63    12    11    1
    64   158   159    2
    65   158   157    1
    66   163   166   ar
    67   163   161   ar
    68    21    20    1
    69    14    15    1
    70    14    11    1
    71   203   202   ar
    72    88    87   ar
    73    17    15   ar
    74    17    19   ar
    75    30    32   ar
    76    30    27   ar
    77    83    84    1
    78   161   160    1
    79    15    16   ar
    80    84    85   ar
    81    11    10    1
    82    19    18   ar
    83   157   160    1
    84   157   156    1
    85    32    33   ar
    86    16    18   ar
    87    87    85   ar
    88    25    27   ar
    89    25    26   ar
    90    27    29   ar
    91    33    31   ar
    92    26    28   ar
    93    29    31   ar
    94    29    28   ar
    95    75    74    2
    96   146   144   ar
    97   146   145   ar
    98   155   153   ar
    99   132   131    1
   100    77    76    1
   101   144   142   ar
   102   145   143   ar
   103   154   153   ar
   104   153   152    1
   105    41    39   am
   106   130   131   ar
   107   130   128   ar
   108    74    73    1
   109   142   141   ar
   110   142   140   ar
   111   152   151    1
   112   143   140   ar
   113   131   129   ar
   114    38    39    1
   115    38    35    1
   116    39    40    2
   117   141   139   ar
   118   140   138   ar
   119   133   134    1
   120    70    69    1
   121   128   126   ar
   122    76    73    1
   123    76    78    1
   124   139   138   ar
   125   138   137    1
   126   151   148    1
   127    73    72    1
   128   129   127   ar
   129    68    67    2
   130   148   149    1
   131   148   147    1
   132    49    48   ar
   133   137   134    1
   134    37    36    2
   135    35    34    1
   136    35    36    1
   137   134   135    1
   138   126   127   ar
   139   126   125    1
   140   136   135    2
   141    69    71    1
   142    69    66    1
   143    67    66    1
   144   149   150    2
   145    36    42   am
   146    48    50   ar
   147    48    47    1
   148   120   118   am
   149   125   122    1
   150    66    65    1
   151    46    47    1
   152    46    43    1
   153    45    44    2
   154   118   119    2
   155   118   117    1
   156    42    43    1
   157   122   123    1
   158   122   121    1
   159    43    44    1
   160   124   123    2
   161    65    53   am
   162   117   114    1
   163    54    53    2
   164    53    52    1
   165    63    61   ar
   166    63    64   ar
   167   114   115    1
   168   114   113    1
   169    93    94    1
   170    93    90    1
   171    61    58   ar
   172    95    94    2
   173    64    62   ar
   174   115   116    2
   175    94    96   am
   176    51    52    1
   177    90    89    1
   178    90    91    1
   179    52    55    1
   180    58    60   ar
   181    58    56   ar
   182    62    60   ar
   183    55    56    1
   184    60    59   ar
   185    56    57   ar
   186    91    97   am
   187    91    92    2
   188    97    98    1
   189   100    99    2
   190    59    57   ar
   191    99    98    1
   192   111   110    2
   193    98   101    1
   194   104   102   am
   195   108   107    2
   196   101   102    1
   197   110   109    1
   198   110   112   am
   199   102   103    2
   200   109   106    1
   201   107   106    1
   202   106   105    1
