@<TRIPOS>MOLECULE
tmp/2j7fB00.pdb
 164 163 0 0 0
SMALL
GASTEIGER

@<TRIPOS>ATOM
      1  N         -8.7410   40.5740   13.3080 N.3    18  GLN18      -0.1245
      2  CA        -7.4060   41.1740   13.3330 C.3    18  GLN18       0.1566
      3  C         -6.4540   40.7400   12.2070 C.2    18  GLN18       0.2260
      4  O         -5.5980   41.5310   11.7850 O.2    18  GLN18      -0.2867
      5  CB        -6.7640   40.9870   14.6940 C.3    18  GLN18       0.0367
      6  CG        -7.6310   41.6070   15.7590 C.3    18  GLN18       0.0905
      7  CD        -6.9680   41.6950   17.0650 C.2    18  GLN18       0.2608
      8  OE1       -7.2560   40.9030   17.9670 O.2    18  GLN18      -0.2717
      9  NE2       -6.0770   42.6740   17.2140 N.am   18  GLN18      -0.0878
     10  N        -14.4920   36.7310   19.5660 N.3   119  HIS119     -0.1226
     11  CA       -13.4170   37.7060   19.7470 C.3   119  HIS119      0.1752
     12  C        -13.7900   39.0400   19.0440 C.2   119  HIS119      0.2596
     13  O        -12.9600   39.6700   18.3690 O.2   119  HIS119     -0.2718
     14  CB       -12.0610   37.1710   19.2670 C.3   119  HIS119      0.0759
     15  CG       -10.8750   37.8400   19.8920 C.ar  119  HIS119      0.0818
     16  ND1       -9.9300   37.1470   20.6070 N.ar  119  HIS119     -0.2268
     17  CD2      -10.4650   39.1310   19.8930 C.ar  119  HIS119      0.1154
     18  CE1       -8.9880   37.9770   21.0260 C.ar  119  HIS119      0.1986
     19  NE2       -9.2950   39.1940   20.6200 N.ar  119  HIS119     -0.2212
     20  N        -15.0710   39.4190   19.2050 N.am  120  TRP120     -0.1976
     21  CA       -15.5450   40.8230   19.1190 C.3   120  TRP120      0.1640
     22  C        -16.2170   41.1570   17.7990 C.2   120  TRP120      0.2290
     23  O        -16.6960   42.2790   17.6070 O.2   120  TRP120     -0.2864
     24  CB       -14.4490   41.8550   19.4370 C.3   120  TRP120      0.0576
     25  CG       -13.7260   41.7260   20.7600 C.ar  120  TRP120      0.0006
     26  CD1      -14.0120   40.8720   21.8140 C.ar  120  TRP120      0.0946
     27  CD2      -12.5980   42.5200   21.1870 C.ar  120  TRP120      0.0152
     28  NE1      -13.1220   41.0960   22.8550 N.ar  120  TRP120     -0.2442
     29  CE2      -12.2430   42.0880   22.4870 C.ar  120  TRP120      0.0810
     30  CE3      -11.8320   43.5340   20.5770 C.ar  120  TRP120      0.0012
     31  CZ2      -11.1590   42.6480   23.1900 C.ar  120  TRP120      0.0191
     32  CZ3      -10.7630   44.0990   21.2940 C.ar  120  TRP120      0.0001
     33  CH2      -10.4520   43.6620   22.5870 C.ar  120  TRP120      0.0015
     34  N        -13.7910   36.3580   24.6490 N.3   163  ASN163     -0.1225
     35  CA       -12.5880   37.1300   24.9320 C.3   163  ASN163      0.1785
     36  C        -12.9530   38.4520   25.5910 C.2   163  ASN163      0.2597
     37  O        -13.6220   39.2670   24.9790 O.2   163  ASN163     -0.2718
     38  CB       -11.7910   37.4360   23.6380 C.3   163  ASN163      0.1169
     39  CG       -10.4760   38.1540   23.9210 C.2   163  ASN163      0.2627
     40  OD1       -9.5820   37.5880   24.5340 O.2   163  ASN163     -0.2716
     41  ND2      -10.3570   39.4030   23.4750 N.am  163  ASN163     -0.0877
     42  N        -12.5230   38.6420   26.8330 N.am  164  GLU164     -0.1979
     43  CA       -12.6020   39.9310   27.5140 C.3   164  GLU164      0.1602
     44  C        -14.0070   40.5680   27.4940 C.2   164  GLU164      0.2287
     45  O        -14.2190   41.6420   26.9150 O.2   164  GLU164     -0.2864
     46  CB       -11.5340   40.8900   26.9780 C.3   164  GLU164      0.0415
     47  CG       -10.1150   40.2820   26.9870 C.3   164  GLU164      0.1163
     48  CD        -9.0460   41.2310   26.5020 C.2   164  GLU164      0.3649
     49  OE1       -9.3740   42.2290   25.8010 O.co2 164  GLU164     -0.2457
     50  OE2       -7.8570   40.9740   26.8190 O.co2 164  GLU164     -0.2457
     51  N        -14.1110   44.4400   28.1300 N.3   167  VAL167     -0.1245
     52  CA       -13.8210   45.2860   26.9930 C.3   167  VAL167      0.1561
     53  C        -15.0760   45.3390   26.1120 C.2   167  VAL167      0.2260
     54  O        -15.5980   46.4270   25.8310 O.2   167  VAL167     -0.2867
     55  CB       -12.5870   44.7680   26.2120 C.3   167  VAL167      0.0252
     56  CG1      -12.3950   45.5760   24.9620 C.3   167  VAL167      0.0019
     57  CG2      -11.3140   44.8370   27.0900 C.3   167  VAL167      0.0019
     58  N         -9.5020   40.1630   30.5470 N.3   220  ASN220     -0.1225
     59  CA        -8.4110   41.1290   30.5880 C.3   220  ASN220      0.1785
     60  C         -8.0980   41.4250   32.0520 C.2   220  ASN220      0.2597
     61  O         -8.9970   41.4020   32.8840 O.2   220  ASN220     -0.2718
     62  CB        -8.7820   42.4420   29.8640 C.3   220  ASN220      0.1169
     63  CG       -10.1020   43.0350   30.3550 C.2   220  ASN220      0.2627
     64  OD1      -11.1720   42.5380   30.0150 O.2   220  ASN220     -0.2716
     65  ND2      -10.0270   44.0740   31.1840 N.am  220  ASN220     -0.0877
     66  N         -6.8290   41.6780   32.3720 N.am  221  ASN221     -0.1974
     67  CA        -6.4610   42.0210   33.7400 C.3   221  ASN221      0.1688
     68  C         -5.3280   43.0280   33.7440 C.2   221  ASN221      0.2292
     69  O         -4.4200   42.9410   32.9270 O.2   221  ASN221     -0.2864
     70  CB        -6.0180   40.7970   34.5430 C.3   221  ASN221      0.1181
     71  CG        -6.9730   39.6750   34.4510 C.2   221  ASN221      0.2629
     72  OD1       -7.8310   39.4880   35.3250 O.2   221  ASN221     -0.2716
     73  ND2       -6.8520   38.9010   33.3850 N.am  221  ASN221     -0.0877
     74  N         -5.7040   37.2730   30.4170 N.3   287  ASN287     -0.1240
     75  CA        -4.8620   38.0810   29.5750 C.3   287  ASN287      0.1653
     76  C         -4.1090   39.0370   30.4920 C.2   287  ASN287      0.2266
     77  O         -4.6700   39.5610   31.4560 O.2   287  ASN287     -0.2867
     78  CB        -5.7170   38.8380   28.5480 C.3   287  ASN287      0.1155
     79  CG        -6.3270   37.9280   27.5050 C.2   287  ASN287      0.2627
     80  OD1       -6.1040   36.7050   27.5010 O.2   287  ASN287     -0.2716
     81  ND2       -7.1130   38.5120   26.6110 N.am  287  ASN287     -0.0877
     82  N         -1.0640   42.2800   30.3140 N.3   289  TYR289     -0.1241
     83  CA        -0.1900   43.1270   29.5690 C.3   289  TYR289      0.1605
     84  C          0.5250   44.1330   30.4270 C.2   289  TYR289      0.2264
     85  O          1.6970   44.4090   30.2010 O.2   289  TYR289     -0.2867
     86  CB        -0.9820   43.8750   28.5040 C.3   289  TYR289      0.0534
     87  CG        -1.4130   42.9900   27.3550 C.ar  289  TYR289     -0.0201
     88  CD1       -2.5990   42.2450   27.4200 C.ar  289  TYR289     -0.0009
     89  CD2       -0.6360   42.9030   26.2020 C.ar  289  TYR289     -0.0009
     90  CE1       -2.9860   41.4400   26.3610 C.ar  289  TYR289      0.0417
     91  CE2       -1.0240   42.1070   25.1370 C.ar  289  TYR289      0.0417
     92  CZ        -2.1950   41.3960   25.2180 C.ar  289  TYR289      0.1957
     93  OH        -2.5550   40.6170   24.1540 O.3   289  TYR289     -0.2866
     94  N          1.9180   51.6010   27.4890 N.3   315  TRP315     -0.1241
     95  CA         1.5240   50.7730   28.6270 C.3   315  TRP315      0.1605
     96  C          2.7610   50.3830   29.4150 C.2   315  TRP315      0.2264
     97  O          3.6880   49.7490   28.8780 O.2   315  TRP315     -0.2867
     98  CB         0.8190   49.4680   28.1930 C.3   315  TRP315      0.0550
     99  CG        -0.4730   49.5620   27.3850 C.ar  315  TRP315      0.0003
    100  CD1       -1.2970   50.6420   27.2470 C.ar  315  TRP315      0.0946
    101  CD2       -1.0850   48.4960   26.6400 C.ar  315  TRP315      0.0152
    102  NE1       -2.3670   50.3290   26.4300 N.ar  315  TRP315     -0.2442
    103  CE2       -2.2630   49.0180   26.0490 C.ar  315  TRP315      0.0810
    104  CE3       -0.7430   47.1490   26.4030 C.ar  315  TRP315      0.0012
    105  CZ2       -3.1070   48.2410   25.2440 C.ar  315  TRP315      0.0191
    106  CZ3       -1.5810   46.3790   25.5990 C.ar  315  TRP315      0.0001
    107  CH2       -2.7560   46.9290   25.0350 C.ar  315  TRP315      0.0015
    108  N         -3.2150   35.4340   26.6870 N.3   342  GLU342     -0.1245
    109  CA        -2.5270   36.4460   25.8940 C.3   342  GLU342      0.1567
    110  C         -1.5300   37.1610   26.7600 C.2   342  GLU342      0.2260
    111  O         -1.8470   37.5190   27.8920 O.2   342  GLU342     -0.2867
    112  CB        -3.4790   37.5310   25.4050 C.3   342  GLU342      0.0388
    113  CG        -4.6170   37.0550   24.5360 C.3   342  GLU342      0.1160
    114  CD        -5.4260   38.2150   24.0030 C.2   342  GLU342      0.3649
    115  OE1       -4.9600   39.3810   24.0900 O.co2 342  GLU342     -0.2457
    116  OE2       -6.5340   37.9510   23.5140 O.co2 342  GLU342     -0.2457
    117  N          0.6380   36.9770   22.6240 N.3   389  TRP389     -0.1241
    118  CA        -0.0560   37.8320   21.6630 C.3   389  TRP389      0.1605
    119  C          0.9710   38.7260   21.0170 C.2   389  TRP389      0.2264
    120  O          1.5370   39.5930   21.7020 O.2   389  TRP389     -0.2867
    121  CB        -1.1620   38.7110   22.2960 C.3   389  TRP389      0.0550
    122  CG        -1.9250   39.4630   21.2470 C.ar  389  TRP389      0.0003
    123  CD1       -1.6150   40.6780   20.7280 C.ar  389  TRP389      0.0946
    124  CD2       -3.1030   39.0210   20.5560 C.ar  389  TRP389      0.0152
    125  NE1       -2.5220   41.0330   19.7570 N.ar  389  TRP389     -0.2442
    126  CE2       -3.4480   40.0320   19.6330 C.ar  389  TRP389      0.0810
    127  CE3       -3.9190   37.8870   20.6540 C.ar  389  TRP389      0.0012
    128  CZ2       -4.5610   39.9340   18.8010 C.ar  389  TRP389      0.0191
    129  CZ3       -5.0100   37.7910   19.8460 C.ar  389  TRP389      0.0001
    130  CH2       -5.3260   38.8060   18.9210 C.ar  389  TRP389      0.0015
    131  N         -4.8190   46.3540   15.0100 N.3   396  GLU396     -0.1231
    132  CA        -4.9150   46.5220   16.4340 C.3   396  GLU396      0.1699
    133  C         -6.1110   47.4130   16.7760 C.2   396  GLU396      0.2592
    134  O         -5.9750   48.4610   17.4170 O.2   396  GLU396     -0.2718
    135  CB        -3.5770   47.0260   16.9920 C.3   396  GLU396      0.0402
    136  CG        -3.5630   47.3550   18.4800 C.3   396  GLU396      0.1161
    137  CD        -4.0720   46.2280   19.3480 C.2   396  GLU396      0.3649
    138  OE1       -3.7630   45.0290   19.1010 O.co2 396  GLU396     -0.2457
    139  OE2       -4.7890   46.5530   20.3120 O.co2 396  GLU396     -0.2457
    140  N         -7.2860   46.9820   16.3120 N.am  397  TRP397     -0.1976
    141  CA        -8.5670   47.6220   16.6490 C.3   397  TRP397      0.1640
    142  C         -8.5420   49.1280   16.3290 C.2   397  TRP397      0.2290
    143  O         -8.2010   49.4890   15.1920 O.2   397  TRP397     -0.2864
    144  CB        -8.9360   47.3160   18.1060 C.3   397  TRP397      0.0576
    145  CG        -8.8980   45.8660   18.4060 C.ar  397  TRP397      0.0006
    146  CD1       -8.0230   45.2190   19.2490 C.ar  397  TRP397      0.0946
    147  CD2       -9.7590   44.8440   17.8570 C.ar  397  TRP397      0.0152
    148  NE1       -8.2930   43.8590   19.2450 N.ar  397  TRP397     -0.2442
    149  CE2       -9.3490   43.6080   18.4040 C.ar  397  TRP397      0.0810
    150  CE3      -10.8210   44.8520   16.9380 C.ar  397  TRP397      0.0012
    151  CZ2       -9.9980   42.3920   18.0980 C.ar  397  TRP397      0.0191
    152  CZ3      -11.4570   43.6320   16.6280 C.ar  397  TRP397      0.0001
    153  CH2      -11.0390   42.4230   17.2160 C.ar  397  TRP397      0.0015
    154  N          2.4120   43.7110   17.3000 N.3   405  PHE405     -0.1241
    155  CA         2.3940   42.8880   18.5140 C.3   405  PHE405      0.1605
    156  C          2.9830   41.5330   18.2130 C.2   405  PHE405      0.2264
    157  O          3.1390   40.6970   19.1060 O.2   405  PHE405     -0.2867
    158  CB         0.9340   42.6600   19.0030 C.3   405  PHE405      0.0534
    159  CG         0.4710   43.6490   20.0530 C.ar  405  PHE405     -0.0203
    160  CD1       -0.2100   44.8080   19.6870 C.ar  405  PHE405     -0.0042
    161  CD2        0.7210   43.4160   21.3950 C.ar  405  PHE405     -0.0042
    162  CE1       -0.6190   45.7210   20.6350 C.ar  405  PHE405     -0.0003
    163  CE2        0.3110   44.3130   22.3690 C.ar  405  PHE405     -0.0003
    164  CZ        -0.3570   45.4700   21.9960 C.ar  405  PHE405     -0.0000
@<TRIPOS>BOND
     1     4     3    2
     2     3     2    1
     3     1     2    1
     4     2     5    1
     5     5     6    1
     6   131   132    1
     7   143   142    2
     8     6     7    1
     9   140   141    1
    10   140   133   am
    11   142   141    1
    12   132   133    1
    13   132   135    1
    14   152   150   ar
    15   152   153   ar
    16   141   144    1
    17   133   134    2
    18   150   147   ar
    19   135   136    1
    20     7     9   am
    21     7     8    2
    22   153   151   ar
    23   154   155    1
    24    23    22    2
    25    22    21    1
    26   147   149   ar
    27   147   145   ar
    28   151   149   ar
    29   144   145    1
    30   156   155    1
    31   156   157    2
    32    13    12    2
    33   149   148   ar
    34   145   146   ar
    35   136   137    1
    36   155   158    1
    37   128   130   ar
    38   128   126   ar
    39   130   129   ar
    40   158   159    1
    41    12    20   am
    42    12    11    1
    43   138   137   ar
    44    21    20    1
    45    21    24    1
    46   148   146   ar
    47    14    11    1
    48    14    15    1
    49   137   139   ar
    50    24    25    1
    51    10    11    1
    52   126   125   ar
    53   126   124   ar
    54   160   159   ar
    55   160   162   ar
    56   125   123   ar
    57   129   127   ar
    58    15    17   ar
    59    15    16   ar
    60    17    19   ar
    61   159   161   ar
    62   124   127   ar
    63   124   122   ar
    64    30    27   ar
    65    30    32   ar
    66    16    18   ar
    67    19    18   ar
    68   162   164   ar
    69   123   122   ar
    70    25    27   ar
    71    25    26   ar
    72   119   118    1
    73   119   120    2
    74    27    29   ar
    75   122   121    1
    76    32    33   ar
    77   161   163   ar
    78   118   121    1
    79   118   117    1
    80    26    28   ar
    81   164   163   ar
    82    29    28   ar
    83    29    31   ar
    84    33    31   ar
    85    41    39   am
    86   116   114   ar
    87    38    39    1
    88    38    35    1
    89    39    40    2
    90   114   115   ar
    91   114   113    1
    92    93    92    1
    93   113   112    1
    94    34    35    1
    95    35    36    1
    96    56    55    1
    97    37    36    2
    98   107   105   ar
    99   107   106   ar
   100    91    92   ar
   101    91    89   ar
   102    92    90   ar
   103   105   103   ar
   104   112   109    1
   105    36    42   am
   106   106   104   ar
   107    49    48   ar
   108    54    53    2
   109   109   108    1
   110   109   110    1
   111   103   102   ar
   112   103   101   ar
   113    53    52    1
   114    89    87   ar
   115    55    52    1
   116    55    57    1
   117    90    88   ar
   118   104   101   ar
   119   102   100   ar
   120    48    50   ar
   121    48    47    1
   122    81    79   am
   123   101    99   ar
   124   110   111    2
   125    42    43    1
   126    45    44    2
   127    46    47    1
   128    46    43    1
   129    52    51    1
   130   100    99   ar
   131    87    88   ar
   132    87    86    1
   133    99    98    1
   134    94    95    1
   135    44    43    1
   136    80    79    2
   137    79    78    1
   138    98    95    1
   139    86    83    1
   140    78    75    1
   141    95    96    1
   142    97    96    2
   143    83    82    1
   144    83    84    1
   145    75    74    1
   146    75    76    1
   147    62    63    1
   148    62    59    1
   149    64    63    2
   150    85    84    2
   151    63    65   am
   152    76    77    2
   153    58    59    1
   154    59    60    1
   155    60    66   am
   156    60    61    2
   157    66    67    1
   158    69    68    2
   159    73    71   am
   160    67    68    1
   161    67    70    1
   162    71    70    1
   163    71    72    2
