@<TRIPOS>MOLECULE
tmp/2j7gB00.pdb
 170 169 0 0 0
SMALL
GASTEIGER

@<TRIPOS>ATOM
      1  N        -17.1790  -32.4540  -14.8390 N.3    18  GLN18      -0.1245
      2  CA       -17.8430  -31.1580  -14.7730 C.3    18  GLN18       0.1566
      3  C        -17.3710  -30.1830  -15.8630 C.2    18  GLN18       0.2260
      4  O        -18.1130  -29.2820  -16.2440 O.2    18  GLN18      -0.2867
      5  CB       -17.7040  -30.5340  -13.3990 C.3    18  GLN18       0.0367
      6  CG       -18.2690  -31.4220  -12.3040 C.3    18  GLN18       0.0905
      7  CD       -18.3340  -30.7460  -10.9880 C.2    18  GLN18       0.2608
      8  OE1      -17.5140  -31.0110  -10.1130 O.2    18  GLN18      -0.2717
      9  NE2      -19.3330  -29.8890  -10.8030 N.am   18  GLN18      -0.0878
     10  N        -13.2940  -38.3460   -8.5650 N.3   119  HIS119     -0.1226
     11  CA       -14.2940  -37.2960   -8.3450 C.3   119  HIS119      0.1752
     12  C        -15.6160  -37.6830   -9.0380 C.2   119  HIS119      0.2596
     13  O        -16.2060  -36.8960   -9.7970 O.2   119  HIS119     -0.2718
     14  CB       -13.7450  -35.9210   -8.8230 C.3   119  HIS119      0.0759
     15  CG       -14.4350  -34.7340   -8.2210 C.ar  119  HIS119      0.0818
     16  ND1      -13.7470  -33.7350   -7.5640 N.ar  119  HIS119     -0.2268
     17  CD2      -15.7370  -34.3780   -8.1860 C.ar  119  HIS119      0.1154
     18  CE1      -14.6010  -32.8180   -7.1440 C.ar  119  HIS119      0.1986
     19  NE2      -15.8170  -33.1820   -7.5110 N.ar  119  HIS119     -0.2212
     20  N        -16.0330  -38.9490   -8.8110 N.am  120  TRP120     -0.1976
     21  CA       -17.4370  -39.3860   -8.9740 C.3   120  TRP120      0.1640
     22  C        -17.7880  -40.0830  -10.2790 C.2   120  TRP120      0.2290
     23  O        -18.9030  -40.6010  -10.4030 O.2   120  TRP120     -0.2864
     24  CB       -18.4550  -38.2440   -8.7350 C.3   120  TRP120      0.0576
     25  CG       -18.3700  -37.5010   -7.4020 C.ar  120  TRP120      0.0006
     26  CD1      -17.5360  -37.7730   -6.3410 C.ar  120  TRP120      0.0946
     27  CD2      -19.1770  -36.3740   -6.9980 C.ar  120  TRP120      0.0152
     28  NE1      -17.7710  -36.8810   -5.3160 N.ar  120  TRP120     -0.2442
     29  CE2      -18.7760  -36.0210   -5.6860 C.ar  120  TRP120      0.0810
     30  CE3      -20.2120  -35.6520   -7.6070 C.ar  120  TRP120      0.0012
     31  CZ2      -19.3630  -34.9600   -4.9730 C.ar  120  TRP120      0.0191
     32  CZ3      -20.8040  -34.5840   -6.8950 C.ar  120  TRP120      0.0001
     33  CH2      -20.3630  -34.2520   -5.5830 C.ar  120  TRP120      0.0015
     34  N        -12.8790  -37.6410   -3.4990 N.3   163  ASN163     -0.1225
     35  CA       -13.6750  -36.4610   -3.2090 C.3   163  ASN163      0.1785
     36  C        -14.9910  -36.8460   -2.5660 C.2   163  ASN163      0.2597
     37  O        -15.8280  -37.4780   -3.2180 O.2   163  ASN163     -0.2718
     38  CB       -13.9710  -35.6640   -4.4760 C.3   163  ASN163      0.1169
     39  CG       -14.6790  -34.3680   -4.1840 C.2   163  ASN163      0.2627
     40  OD1      -14.0610  -33.4260   -3.6850 O.2   163  ASN163     -0.2716
     41  ND2      -15.9870  -34.3100   -4.4760 N.am  163  ASN163     -0.0877
     42  N        -15.1430  -36.4770   -1.2960 N.am  164  GLU164     -0.1979
     43  CA       -16.4200  -36.4930   -0.5700 C.3   164  GLU164      0.1602
     44  C        -17.1320  -37.8650   -0.5970 C.2   164  GLU164      0.2287
     45  O        -18.2150  -37.9960   -1.1870 O.2   164  GLU164     -0.2864
     46  CB       -17.3570  -35.4000   -1.0880 C.3   164  GLU164      0.0415
     47  CG       -16.7600  -33.9810   -0.9440 C.3   164  GLU164      0.1163
     48  CD       -17.7130  -32.9110   -1.4270 C.2   164  GLU164      0.3649
     49  OE1      -18.6780  -33.2270   -2.1640 O.co2 164  GLU164     -0.2457
     50  OE2      -17.5120  -31.7400   -1.0390 O.co2 164  GLU164     -0.2457
     51  N        -20.8790  -38.0320    0.0760 N.3   167  VAL167     -0.1245
     52  CA       -21.7970  -37.6930   -1.0100 C.3   167  VAL167      0.1561
     53  C        -21.9070  -38.8810   -1.9640 C.2   167  VAL167      0.2260
     54  O        -23.0090  -39.2810   -2.3230 O.2   167  VAL167     -0.2867
     55  CB       -21.3390  -36.4280   -1.7870 C.3   167  VAL167      0.0252
     56  CG1      -22.2120  -36.2210   -3.0460 C.3   167  VAL167      0.0019
     57  CG2      -21.4240  -35.1900   -0.8550 C.3   167  VAL167      0.0019
     58  N        -16.6800  -33.3770    2.5930 N.3   220  ASN220     -0.1225
     59  CA       -17.6260  -32.2720    2.6250 C.3   220  ASN220      0.1785
     60  C        -17.9680  -32.0250    4.0760 C.2   220  ASN220      0.2597
     61  O        -17.8960  -32.9540    4.9080 O.2   220  ASN220     -0.2718
     62  CB       -18.9070  -32.5850    1.8250 C.3   220  ASN220      0.1169
     63  CG       -19.5330  -33.9020    2.2220 C.2   220  ASN220      0.2627
     64  OD1      -19.0270  -34.9570    1.8670 O.2   220  ASN220     -0.2716
     65  ND2      -20.6390  -33.8470    2.9650 N.am  220  ASN220     -0.0877
     66  N        -18.2960  -30.7730    4.4000 N.am  221  ASN221     -0.1974
     67  CA       -18.6380  -30.4060    5.7650 C.3   221  ASN221      0.1688
     68  C        -19.6220  -29.2560    5.7990 C.2   221  ASN221      0.2292
     69  O        -19.5350  -28.3500    4.9790 O.2   221  ASN221     -0.2864
     70  CB       -17.4000  -29.9810    6.5510 C.3   221  ASN221      0.1181
     71  CG       -16.3160  -31.0100    6.5300 C.2   221  ASN221      0.2629
     72  OD1      -16.2670  -31.8860    7.3880 O.2   221  ASN221     -0.2716
     73  ND2      -15.4190  -30.8900    5.5770 N.am  221  ASN221     -0.0877
     74  N        -13.7910  -29.5550    2.3450 N.3   291  ASN291     -0.1240
     75  CA       -14.6170  -28.7060    1.5040 C.3   291  ASN291      0.1653
     76  C        -15.6270  -28.0600    2.4350 C.2   291  ASN291      0.2266
     77  O        -16.1510  -28.7100    3.3360 O.2   291  ASN291     -0.2867
     78  CB       -15.3730  -29.5240    0.4300 C.3   291  ASN291      0.1155
     79  CG       -14.4700  -30.1380   -0.6110 C.2   291  ASN291      0.2627
     80  OD1      -13.2640  -29.8510   -0.7040 O.2   291  ASN291     -0.2716
     81  ND2      -15.0620  -31.0080   -1.4340 N.am  291  ASN291     -0.0877
     82  N        -18.8730  -24.9540    2.4330 N.3   293  TYR293     -0.1227
     83  CA       -19.7340  -24.0170    1.7150 C.3   293  TYR293      0.1736
     84  C        -20.8000  -23.3570    2.5950 C.2   293  TYR293      0.2596
     85  O        -21.0550  -22.1630    2.4720 O.2   293  TYR293     -0.2718
     86  CB       -20.4180  -24.7110    0.5360 C.3   293  TYR293      0.0548
     87  CG       -19.5180  -25.1290   -0.6050 C.ar  293  TYR293     -0.0200
     88  CD1      -19.5580  -24.4600   -1.8370 C.ar  293  TYR293     -0.0009
     89  CD2      -18.6750  -26.2280   -0.4850 C.ar  293  TYR293     -0.0009
     90  CE1      -18.7730  -24.8670   -2.8990 C.ar  293  TYR293      0.0417
     91  CE2      -17.8630  -26.6240   -1.5330 C.ar  293  TYR293      0.0417
     92  CZ       -17.9320  -25.9600   -2.7370 C.ar  293  TYR293      0.1957
     93  OH       -17.1470  -26.3660   -3.7680 O.3   293  TYR293     -0.2866
     94  N        -21.4720  -24.1040    3.4570 N.am  294  SER294     -0.1952
     95  CA       -22.6250  -23.4910    4.1260 C.3   294  SER294      0.1924
     96  C        -22.9060  -23.9750    5.5350 C.2   294  SER294      0.2314
     97  O        -22.2490  -24.9050    6.0300 O.2   294  SER294     -0.2863
     98  CB       -23.8900  -23.6150    3.2620 C.3   294  SER294      0.2116
     99  OG       -24.5970  -24.7950    3.5810 O.3   294  SER294     -0.2180
    100  N        -28.1560  -21.9720   -0.3380 N.3   321  TRP321     -0.1241
    101  CA       -27.3290  -22.3110    0.8160 C.3   321  TRP321      0.1605
    102  C        -27.0010  -21.0560    1.6080 C.2   321  TRP321      0.2264
    103  O        -26.5530  -20.0490    1.0400 O.2   321  TRP321     -0.2867
    104  CB       -26.0150  -22.9860    0.3960 C.3   321  TRP321      0.0550
    105  CG       -26.1610  -24.2510   -0.4330 C.ar  321  TRP321      0.0003
    106  CD1      -27.2660  -25.0420   -0.5420 C.ar  321  TRP321      0.0946
    107  CD2      -25.1370  -24.8760   -1.2210 C.ar  321  TRP321      0.0152
    108  NE1      -27.0100  -26.1090   -1.3930 N.ar  321  TRP321     -0.2442
    109  CE2      -25.7070  -26.0340   -1.8120 C.ar  321  TRP321      0.0810
    110  CE3      -23.7920  -24.5610   -1.5020 C.ar  321  TRP321      0.0012
    111  CZ2      -24.9740  -26.8840   -2.6600 C.ar  321  TRP321      0.0191
    112  CZ3      -23.0620  -25.4020   -2.3470 C.ar  321  TRP321      0.0001
    113  CH2      -23.6610  -26.5510   -2.9200 C.ar  321  TRP321      0.0015
    114  N        -12.0580  -27.0330   -1.2980 N.3   348  GLU348     -0.1245
    115  CA       -13.1310  -26.3360   -2.0150 C.3   348  GLU348      0.1567
    116  C        -13.8110  -25.3140   -1.1240 C.2   348  GLU348      0.2260
    117  O        -14.1880  -25.6070    0.0070 O.2   348  GLU348     -0.2867
    118  CB       -14.2370  -27.3000   -2.5010 C.3   348  GLU348      0.0388
    119  CG       -13.8410  -28.1920   -3.6340 C.3   348  GLU348      0.1160
    120  CD       -14.9460  -29.1030   -4.0770 C.2   348  GLU348      0.3649
    121  OE1      -16.1390  -28.7350   -3.9340 O.co2 348  GLU348     -0.2457
    122  OE2      -14.5930  -30.1790   -4.5870 O.co2 348  GLU348     -0.2457
    123  N        -13.5230  -23.1850   -5.2930 N.3   395  TRP395     -0.1241
    124  CA       -14.3940  -23.8490   -6.2480 C.3   395  TRP395      0.1605
    125  C        -15.2670  -22.7890   -6.9100 C.2   395  TRP395      0.2264
    126  O        -16.0950  -22.1760   -6.2270 O.2   395  TRP395     -0.2867
    127  CB       -15.3000  -24.9140   -5.6050 C.3   395  TRP395      0.0550
    128  CG       -16.0670  -25.6640   -6.6920 C.ar  395  TRP395      0.0003
    129  CD1      -17.2900  -25.3350   -7.2170 C.ar  395  TRP395      0.0946
    130  CD2      -15.6210  -26.8160   -7.4040 C.ar  395  TRP395      0.0152
    131  NE1      -17.6330  -26.2150   -8.2310 N.ar  395  TRP395     -0.2442
    132  CE2      -16.6250  -27.1350   -8.3640 C.ar  395  TRP395      0.0810
    133  CE3      -14.4730  -27.6160   -7.3280 C.ar  395  TRP395      0.0012
    134  CZ2      -16.5080  -28.2220   -9.2330 C.ar  395  TRP395      0.0191
    135  CZ3      -14.3610  -28.7010   -8.1880 C.ar  395  TRP395      0.0001
    136  CH2      -15.3710  -28.9910   -9.1280 C.ar  395  TRP395      0.0015
    137  N        -22.9960  -28.5290  -13.0600 N.3   402  GLU402     -0.1231
    138  CA       -23.2190  -28.6270  -11.6260 C.3   402  GLU402      0.1699
    139  C        -24.1300  -29.8290  -11.2800 C.2   402  GLU402      0.2592
    140  O        -25.2120  -29.6970  -10.6890 O.2   402  GLU402     -0.2718
    141  CB       -23.7240  -27.2880  -11.0600 C.3   402  GLU402      0.0402
    142  CG       -24.0630  -27.2910   -9.5530 C.3   402  GLU402      0.1161
    143  CD       -22.9360  -27.8190   -8.6310 C.2   402  GLU402      0.3649
    144  OE1      -21.7350  -27.7020   -8.9690 O.co2 402  GLU402     -0.2457
    145  OE2      -23.2680  -28.3390   -7.5330 O.co2 402  GLU402     -0.2457
    146  N        -23.6710  -31.0080  -11.6880 N.am  403  TRP403     -0.1976
    147  CA       -24.3310  -32.2820  -11.3270 C.3   403  TRP403      0.1640
    148  C        -25.8400  -32.3050  -11.6480 C.2   403  TRP403      0.2290
    149  O        -26.2090  -32.0370  -12.8040 O.2   403  TRP403     -0.2864
    150  CB       -23.9780  -32.6530   -9.8730 C.3   403  TRP403      0.0576
    151  CG       -22.4850  -32.6830   -9.6420 C.ar  403  TRP403      0.0006
    152  CD1      -21.7600  -31.8640   -8.8030 C.ar  403  TRP403      0.0946
    153  CD2      -21.5310  -33.5400  -10.2830 C.ar  403  TRP403      0.0152
    154  NE1      -20.4250  -32.1660   -8.8840 N.ar  403  TRP403     -0.2442
    155  CE2      -20.2520  -33.1920   -9.7790 C.ar  403  TRP403      0.0810
    156  CE3      -21.6250  -34.5640  -11.2470 C.ar  403  TRP403      0.0012
    157  CZ2      -19.0870  -33.8610  -10.1690 C.ar  403  TRP403      0.0191
    158  CZ3      -20.4610  -35.2190  -11.6410 C.ar  403  TRP403      0.0001
    159  CH2      -19.2050  -34.8530  -11.1150 C.ar  403  TRP403      0.0015
    160  N        -20.4240  -21.4840  -10.6470 N.3   411  PHE411     -0.1241
    161  CA       -19.5250  -21.4060   -9.4680 C.3   411  PHE411      0.1605
    162  C        -18.1800  -20.7530   -9.8130 C.2   411  PHE411      0.2264
    163  O        -17.3560  -20.5130   -8.9340 O.2   411  PHE411     -0.2867
    164  CB       -19.2500  -22.8100   -8.8550 C.3   411  PHE411      0.0534
    165  CG       -20.2840  -23.2750   -7.8610 C.ar  411  PHE411     -0.0203
    166  CD1      -21.4180  -23.9740   -8.2890 C.ar  411  PHE411     -0.0042
    167  CD2      -20.1130  -23.0480   -6.4980 C.ar  411  PHE411     -0.0042
    168  CE1      -22.3740  -24.4020   -7.3720 C.ar  411  PHE411     -0.0003
    169  CE2      -21.0480  -23.4740   -5.5710 C.ar  411  PHE411     -0.0003
    170  CZ       -22.1960  -24.1510   -6.0140 C.ar  411  PHE411     -0.0000
@<TRIPOS>BOND
     1     4     3    2
     2     3     2    1
     3     1     2    1
     4     2     5    1
     5     5     6    1
     6   137   138    1
     7   149   148    2
     8     6     7    1
     9   146   147    1
    10   146   139   am
    11   148   147    1
    12   158   156   ar
    13   158   159   ar
    14   138   139    1
    15   138   141    1
    16   147   150    1
    17   139   140    2
    18   156   153   ar
    19   159   157   ar
    20   141   142    1
    21     7     9   am
    22     7     8    2
    23   160   161    1
    24    23    22    2
    25   153   155   ar
    26   153   151   ar
    27    22    21    1
    28   157   155   ar
    29   150   151    1
    30   162   161    1
    31   162   163    2
    32    13    12    2
    33   155   154   ar
    34   151   152   ar
    35   142   143    1
    36   161   164    1
    37   134   136   ar
    38   134   132   ar
    39   136   135   ar
    40    12    20   am
    41    12    11    1
    42    21    20    1
    43    21    24    1
    44   144   143   ar
    45   154   152   ar
    46   164   165    1
    47    14    11    1
    48    14    15    1
    49    24    25    1
    50   143   145   ar
    51    10    11    1
    52   132   131   ar
    53   132   130   ar
    54   166   165   ar
    55   166   168   ar
    56   131   129   ar
    57    15    17   ar
    58    15    16   ar
    59   135   133   ar
    60    17    19   ar
    61   165   167   ar
    62    30    27   ar
    63    30    32   ar
    64    16    18   ar
    65    19    18   ar
    66   130   133   ar
    67   130   128   ar
    68    25    27   ar
    69    25    26   ar
    70   168   170   ar
    71   129   128   ar
    72    27    29   ar
    73   125   124    1
    74   125   126    2
    75    32    33   ar
    76   128   127    1
    77   167   169   ar
    78    26    28   ar
    79   124   127    1
    80   124   123    1
    81   170   169   ar
    82    29    28   ar
    83    29    31   ar
    84    33    31   ar
    85   122   120   ar
    86    41    39   am
    87    38    39    1
    88    38    35    1
    89    39    40    2
    90   120   121   ar
    91   120   119    1
    92    93    92    1
    93   119   118    1
    94    34    35    1
    95    37    36    2
    96    35    36    1
    97    56    55    1
    98   113   111   ar
    99   113   112   ar
   100    90    92   ar
   101    90    88   ar
   102    92    91   ar
   103   111   109   ar
   104    36    42   am
   105   118   115    1
   106   112   110   ar
   107    54    53    2
   108    49    48   ar
   109   115   114    1
   110   115   116    1
   111    53    52    1
   112    88    87   ar
   113   109   108   ar
   114   109   107   ar
   115    55    52    1
   116    55    57    1
   117    91    89   ar
   118   110   107   ar
   119    81    79   am
   120    48    50   ar
   121    48    47    1
   122   108   106   ar
   123    42    43    1
   124   107   105   ar
   125    45    44    2
   126   116   117    2
   127    46    47    1
   128    46    43    1
   129    52    51    1
   130    80    79    2
   131    79    78    1
   132    87    89   ar
   133    87    86    1
   134    44    43    1
   135   106   105   ar
   136   105   104    1
   137   100   101    1
   138   104   101    1
   139    78    75    1
   140    86    83    1
   141   101   102    1
   142   103   102    2
   143    75    74    1
   144    75    76    1
   145    83    82    1
   146    83    84    1
   147    62    63    1
   148    62    59    1
   149    64    63    2
   150    63    65   am
   151    76    77    2
   152    85    84    2
   153    58    59    1
   154    84    94   am
   155    59    60    1
   156    98    99    1
   157    98    95    1
   158    94    95    1
   159    60    66   am
   160    60    61    2
   161    95    96    1
   162    66    67    1
   163    69    68    2
   164    96    97    2
   165    73    71   am
   166    67    68    1
   167    67    70    1
   168    71    70    1
   169    71    72    2
