@<TRIPOS>MOLECULE
tmp/2j7hB00.pdb
 133 135 0 0 0
SMALL
GASTEIGER

@<TRIPOS>ATOM
      1  N        -16.9550  -32.3100  -14.8030 N.3    18  GLN18      -0.1245
      2  CA       -17.6800  -31.0480  -14.7140 C.3    18  GLN18       0.1566
      3  C        -17.2310  -30.0320  -15.7770 C.2    18  GLN18       0.2260
      4  O        -17.9990  -29.1070  -16.1250 O.2    18  GLN18      -0.2867
      5  CB       -17.5670  -30.4440  -13.3250 C.3    18  GLN18       0.0367
      6  CG       -18.1110  -31.3440  -12.2410 C.3    18  GLN18       0.0905
      7  CD       -18.0890  -30.7100  -10.9180 C.2    18  GLN18       0.2608
      8  OE1      -17.2540  -31.0380  -10.0790 O.2    18  GLN18      -0.2717
      9  NE2      -19.0230  -29.8080  -10.6810 N.am   18  GLN18      -0.0878
     10  N        -13.1490  -38.2450   -8.5840 N.3   119  HIS119     -0.1226
     11  CA       -14.1350  -37.1800   -8.3600 C.3   119  HIS119      0.1752
     12  C        -15.4490  -37.5580   -9.0750 C.2   119  HIS119      0.2596
     13  O        -16.0300  -36.7710   -9.8420 O.2   119  HIS119     -0.2718
     14  CB       -13.5620  -35.7970   -8.7840 C.3   119  HIS119      0.0759
     15  CG       -14.2850  -34.6150   -8.2120 C.ar  119  HIS119      0.0818
     16  ND1      -13.6270  -33.5980   -7.5560 N.ar  119  HIS119     -0.2268
     17  CD2      -15.5960  -34.2790   -8.2000 C.ar  119  HIS119      0.1154
     18  CE1      -14.5010  -32.6860   -7.1630 C.ar  119  HIS119      0.1986
     19  NE2      -15.7070  -33.0730   -7.5520 N.ar  119  HIS119     -0.2212
     20  N        -15.8670  -38.8230   -8.8360 N.am  120  TRP120     -0.1976
     21  CA       -17.2600  -39.2820   -9.0190 C.3   120  TRP120      0.1640
     22  C        -17.5680  -39.9180  -10.3670 C.2   120  TRP120      0.2290
     23  O        -18.6710  -40.4370  -10.5630 O.2   120  TRP120     -0.2864
     24  CB       -18.3150  -38.1820   -8.7210 C.3   120  TRP120      0.0576
     25  CG       -18.2010  -37.4330   -7.4050 C.ar  120  TRP120      0.0006
     26  CD1      -17.3450  -37.6800   -6.3470 C.ar  120  TRP120      0.0946
     27  CD2      -19.0220  -36.3160   -7.0040 C.ar  120  TRP120      0.0152
     28  NE1      -17.5970  -36.7720   -5.3200 N.ar  120  TRP120     -0.2442
     29  CE2      -18.6150  -35.9290   -5.7060 C.ar  120  TRP120      0.0810
     30  CE3      -20.0670  -35.6140   -7.6210 C.ar  120  TRP120      0.0012
     31  CZ2      -19.2210  -34.8600   -5.0190 C.ar  120  TRP120      0.0191
     32  CZ3      -20.6670  -34.5490   -6.9410 C.ar  120  TRP120      0.0001
     33  CH2      -20.2380  -34.1820   -5.6470 C.ar  120  TRP120      0.0015
     34  N        -12.7790  -37.4900   -3.4770 N.3   163  ASN163     -0.1225
     35  CA       -13.5260  -36.2690   -3.2080 C.3   163  ASN163      0.1785
     36  C        -14.8740  -36.5810   -2.5680 C.2   163  ASN163      0.2597
     37  O        -15.7180  -37.2330   -3.1910 O.2   163  ASN163     -0.2718
     38  CB       -13.7080  -35.4210   -4.4860 C.3   163  ASN163      0.1169
     39  CG       -14.5660  -34.1890   -4.2590 C.2   163  ASN163      0.2627
     40  OD1      -14.0590  -33.1660   -3.8100 O.2   163  ASN163     -0.2716
     41  ND2      -15.8860  -34.2790   -4.5590 N.am  163  ASN163     -0.0877
     42  N        -15.0590  -36.1190   -1.3270 N.am  164  GLU164     -0.1979
     43  CA       -16.3690  -36.1040   -0.6570 C.3   164  GLU164      0.1602
     44  C        -17.0600  -37.4750   -0.6840 C.2   164  GLU164      0.2287
     45  O        -18.1580  -37.5870   -1.2250 O.2   164  GLU164     -0.2864
     46  CB       -17.3420  -35.0440   -1.2340 C.3   164  GLU164      0.0415
     47  CG       -16.7680  -33.5910   -1.2300 C.3   164  GLU164      0.1163
     48  CD       -17.7050  -32.5320   -1.8120 C.2   164  GLU164      0.3649
     49  OE1      -18.6950  -32.8720   -2.5080 O.co2 164  GLU164     -0.2457
     50  OE2      -17.4450  -31.3220   -1.5770 O.co2 164  GLU164     -0.2457
     51  N        -18.7640  -24.7570    2.3350 N.3   293  TYR293     -0.1241
     52  CA       -19.6460  -23.8490    1.6110 C.3   293  TYR293      0.1605
     53  C        -20.6690  -23.1780    2.5140 C.2   293  TYR293      0.2264
     54  O        -20.9900  -22.0190    2.3350 O.2   293  TYR293     -0.2867
     55  CB       -20.3900  -24.6190    0.5110 C.3   293  TYR293      0.0534
     56  CG       -19.4870  -25.0540   -0.6040 C.ar  293  TYR293     -0.0201
     57  CD1      -19.2000  -24.1900   -1.6660 C.ar  293  TYR293     -0.0009
     58  CD2      -18.9280  -26.3250   -0.6140 C.ar  293  TYR293     -0.0009
     59  CE1      -18.3690  -24.5830   -2.7070 C.ar  293  TYR293      0.0417
     60  CE2      -18.0880  -26.7280   -1.6560 C.ar  293  TYR293      0.0417
     61  CZ       -17.8260  -25.8550   -2.7010 C.ar  293  TYR293      0.1957
     62  OH       -16.9990  -26.2250   -3.7220 O.3   293  TYR293     -0.2866
     63  N        -27.9210  -21.8490   -0.3580 N.3   322  TRP322     -0.1241
     64  CA       -27.0710  -22.1640    0.7790 C.3   322  TRP322      0.1605
     65  C        -26.7300  -20.9190    1.5870 C.2   322  TRP322      0.2264
     66  O        -26.0560  -19.9880    1.0870 O.2   322  TRP322     -0.2867
     67  CB       -25.7650  -22.8260    0.3410 C.3   322  TRP322      0.0550
     68  CG       -25.8890  -24.1230   -0.3850 C.ar  322  TRP322      0.0003
     69  CD1      -26.9760  -24.9580   -0.4240 C.ar  322  TRP322      0.0946
     70  CD2      -24.8580  -24.7640   -1.1350 C.ar  322  TRP322      0.0152
     71  NE1      -26.6940  -26.0590   -1.2060 N.ar  322  TRP322     -0.2442
     72  CE2      -25.3950  -25.9710   -1.6410 C.ar  322  TRP322      0.0810
     73  CE3      -23.5290  -24.4240   -1.4530 C.ar  322  TRP322      0.0012
     74  CZ2      -24.6490  -26.8460   -2.4340 C.ar  322  TRP322      0.0191
     75  CZ3      -22.7870  -25.2950   -2.2380 C.ar  322  TRP322      0.0001
     76  CH2      -23.3550  -26.4960   -2.7260 C.ar  322  TRP322      0.0015
     77  N        -11.7650  -26.8990   -1.2820 N.3   349  GLU349     -0.1245
     78  CA       -12.7870  -26.1800   -2.0340 C.3   349  GLU349      0.1567
     79  C        -13.4960  -25.1810   -1.1480 C.2   349  GLU349      0.2260
     80  O        -13.9110  -25.5040   -0.0420 O.2   349  GLU349     -0.2867
     81  CB       -13.8910  -27.1100   -2.5460 C.3   349  GLU349      0.0388
     82  CG       -13.4700  -28.1800   -3.5340 C.3   349  GLU349      0.1160
     83  CD       -14.6410  -29.0060   -4.0110 C.2   349  GLU349      0.3649
     84  OE1      -15.8080  -28.5710   -3.8320 O.co2 349  GLU349     -0.2457
     85  OE2      -14.3740  -30.0950   -4.5650 O.co2 349  GLU349     -0.2457
     86  N        -13.3230  -23.0750   -5.3020 N.3   396  TRP396     -0.1241
     87  CA       -14.1450  -23.7780   -6.2520 C.3   396  TRP396      0.1605
     88  C        -15.0210  -22.7180   -6.8870 C.2   396  TRP396      0.2264
     89  O        -15.8160  -22.0930   -6.1660 O.2   396  TRP396     -0.2867
     90  CB       -15.0260  -24.8360   -5.5800 C.3   396  TRP396      0.0550
     91  CG       -15.8260  -25.5640   -6.6170 C.ar  396  TRP396      0.0003
     92  CD1      -17.0470  -25.2200   -7.0990 C.ar  396  TRP396      0.0946
     93  CD2      -15.4100  -26.7140   -7.3460 C.ar  396  TRP396      0.0152
     94  NE1      -17.4390  -26.0930   -8.0890 N.ar  396  TRP396     -0.2442
     95  CE2      -16.4390  -27.0170   -8.2700 C.ar  396  TRP396      0.0810
     96  CE3      -14.2790  -27.5250   -7.3030 C.ar  396  TRP396      0.0012
     97  CZ2      -16.3690  -28.1080   -9.1280 C.ar  396  TRP396      0.0191
     98  CZ3      -14.2030  -28.6090   -8.1660 C.ar  396  TRP396      0.0001
     99  CH2      -15.2370  -28.8910   -9.0570 C.ar  396  TRP396      0.0015
    100  N        -22.8010  -28.3870  -12.8090 N.3   403  GLU403     -0.1231
    101  CA       -23.0340  -28.5510  -11.3800 C.3   403  GLU403      0.1699
    102  C        -23.9510  -29.7480  -11.0850 C.2   403  GLU403      0.2592
    103  O        -24.9900  -29.6310  -10.4110 O.2   403  GLU403     -0.2718
    104  CB       -23.5190  -27.2470  -10.7320 C.3   403  GLU403      0.0402
    105  CG       -23.8080  -27.3420   -9.2040 C.3   403  GLU403      0.1161
    106  CD       -22.6400  -27.8590   -8.3360 C.2   403  GLU403      0.3649
    107  OE1      -21.4470  -27.6990   -8.7010 O.co2 403  GLU403     -0.2457
    108  OE2      -22.9300  -28.4230   -7.2480 O.co2 403  GLU403     -0.2457
    109  N        -23.5470  -30.9060  -11.6160 N.am  404  TRP404     -0.1976
    110  CA       -24.1800  -32.1900  -11.3020 C.3   404  TRP404      0.1640
    111  C        -25.7000  -32.1890  -11.5610 C.2   404  TRP404      0.2290
    112  O        -26.1110  -31.8410  -12.6760 O.2   404  TRP404     -0.2864
    113  CB       -23.8130  -32.5990   -9.8680 C.3   404  TRP404      0.0576
    114  CG       -22.3020  -32.6260   -9.6440 C.ar  404  TRP404      0.0006
    115  CD1      -21.5970  -31.8320   -8.7690 C.ar  404  TRP404      0.0946
    116  CD2      -21.3250  -33.4680  -10.2930 C.ar  404  TRP404      0.0152
    117  NE1      -20.2560  -32.1240   -8.8430 N.ar  404  TRP404     -0.2442
    118  CE2      -20.0610  -33.1300   -9.7560 C.ar  404  TRP404      0.0810
    119  CE3      -21.3910  -34.4720  -11.2800 C.ar  404  TRP404      0.0012
    120  CZ2      -18.8850  -33.7800  -10.1450 C.ar  404  TRP404      0.0191
    121  CZ3      -20.2190  -35.1050  -11.6730 C.ar  404  TRP404      0.0001
    122  CH2      -18.9740  -34.7380  -11.1240 C.ar  404  TRP404      0.0015
    123  N        -20.2050  -21.3490  -10.3960 N.3   412  PHE412     -0.1241
    124  CA       -19.3180  -21.2880   -9.2270 C.3   412  PHE412      0.1605
    125  C        -17.9790  -20.6530   -9.5870 C.2   412  PHE412      0.2264
    126  O        -17.1860  -20.3510   -8.7080 O.2   412  PHE412     -0.2867
    127  CB       -19.0320  -22.7140   -8.6860 C.3   412  PHE412      0.0534
    128  CG       -20.0470  -23.2230   -7.7020 C.ar  412  PHE412     -0.0203
    129  CD1      -21.2160  -23.8470   -8.1430 C.ar  412  PHE412     -0.0042
    130  CD2      -19.8250  -23.1100   -6.3310 C.ar  412  PHE412     -0.0042
    131  CE1      -22.1470  -24.3140   -7.2400 C.ar  412  PHE412     -0.0003
    132  CE2      -20.7420  -23.5800   -5.4190 C.ar  412  PHE412     -0.0003
    133  CZ       -21.9110  -24.1830   -5.8670 C.ar  412  PHE412     -0.0000
@<TRIPOS>BOND
     1     4     3    2
     2     3     2    1
     3     1     2    1
     4     2     5    1
     5     5     6    1
     6   100   101    1
     7   112   111    2
     8     6     7    1
     9   121   119   ar
    10   121   122   ar
    11   109   110    1
    12   109   102   am
    13   111   110    1
    14   101   102    1
    15   101   104    1
    16   110   113    1
    17   119   116   ar
    18   122   120   ar
    19   102   103    2
    20     7     9   am
    21     7     8    2
    22   104   105    1
    23    23    22    2
    24   123   124    1
    25    22    21    1
    26   116   118   ar
    27   116   114   ar
    28   120   118   ar
    29   113   114    1
    30    13    12    2
    31   118   117   ar
    32   114   115   ar
    33   125   124    1
    34   125   126    2
    35   124   127    1
    36   105   106    1
    37    97    99   ar
    38    97    95   ar
    39    12    20   am
    40    12    11    1
    41    99    98   ar
    42    21    20    1
    43    21    24    1
    44   117   115   ar
    45    14    11    1
    46    14    15    1
    47    24    25    1
    48   107   106   ar
    49   127   128    1
    50    10    11    1
    51   106   108   ar
    52    95    94   ar
    53    95    93   ar
    54    15    17   ar
    55    15    16   ar
    56    17    19   ar
    57    98    96   ar
    58   129   128   ar
    59   129   131   ar
    60    94    92   ar
    61   128   130   ar
    62    30    27   ar
    63    30    32   ar
    64    16    18   ar
    65    19    18   ar
    66    25    27   ar
    67    25    26   ar
    68    93    96   ar
    69    93    91   ar
    70   131   133   ar
    71    92    91   ar
    72    27    29   ar
    73    32    33   ar
    74    88    87    1
    75    88    89    2
    76    91    90    1
    77    26    28   ar
    78   130   132   ar
    79    87    90    1
    80    87    86    1
    81   133   132   ar
    82    29    28   ar
    83    29    31   ar
    84    33    31   ar
    85    85    83   ar
    86    41    39   am
    87    38    39    1
    88    38    35    1
    89    39    40    2
    90    83    84   ar
    91    83    82    1
    92    62    61    1
    93    82    81    1
    94    34    35    1
    95    35    36    1
    96    37    36    2
    97    76    74   ar
    98    76    75   ar
    99    59    61   ar
   100    59    57   ar
   101    61    60   ar
   102    36    42   am
   103    81    78    1
   104    49    48   ar
   105    74    72   ar
   106    75    73   ar
   107    78    77    1
   108    78    79    1
   109    48    50   ar
   110    48    47    1
   111    57    56   ar
   112    60    58   ar
   113    72    71   ar
   114    72    70   ar
   115    73    70   ar
   116    42    43    1
   117    46    47    1
   118    46    43    1
   119    45    44    2
   120    71    69   ar
   121    79    80    2
   122    70    68   ar
   123    44    43    1
   124    58    56   ar
   125    56    55    1
   126    69    68   ar
   127    68    67    1
   128    63    64    1
   129    67    64    1
   130    55    52    1
   131    64    65    1
   132    66    65    2
   133    52    51    1
   134    52    53    1
   135    54    53    2
