@<TRIPOS>MOLECULE
tmp/2j7kA00.pdb
 121 118 0 0 0
SMALL
GASTEIGER

@<TRIPOS>ATOM
      1  N         40.6630   13.5670   43.5970 N.3    16  HIS16      -0.1226
      2  CA        39.3460   14.1030   43.9260 C.3    16  HIS16       0.1752
      3  C         39.1170   15.3540   43.0740 C.2    16  HIS16       0.2596
      4  O         40.0790   15.9730   42.6140 O.2    16  HIS16      -0.2718
      5  CB        39.2450   14.4280   45.4220 C.3    16  HIS16       0.0759
      6  CG        37.8590   14.7850   45.8710 C.ar   16  HIS16       0.0818
      7  ND1       37.4710   16.0810   46.1430 N.ar   16  HIS16      -0.2268
      8  CD2       36.7670   14.0150   46.0860 C.ar   16  HIS16       0.1154
      9  CE1       36.2010   16.0910   46.5130 C.ar   16  HIS16       0.1986
     10  NE2       35.7490   14.8500   46.4840 N.ar   16  HIS16      -0.2212
     11  N         37.8540   15.7130   42.8480 N.am   17  ILE17      -0.1966
     12  CA        37.5270   16.9270   42.0940 C.3    17  ILE17       0.1727
     13  C         38.3080   18.1410   42.6250 C.2    17  ILE17       0.2616
     14  O         38.4140   18.3470   43.8400 O.2    17  ILE17      -0.2715
     15  CB        35.9860   17.2120   42.0470 C.3    17  ILE17       0.0290
     16  CG1       35.6830   18.4450   41.1720 C.3    17  ILE17       0.0022
     17  CG2       35.3980   17.3350   43.4680 C.3    17  ILE17       0.0023
     18  CD1       34.2010   18.7590   40.9650 C.3    17  ILE17       0.0001
     19  N         38.8760   18.9040   41.6890 N.am   18  ASP18      -0.1957
     20  CA        39.6240   20.1430   41.9580 C.3    18  ASP18       0.1840
     21  C         41.0710   20.0000   42.4550 C.2    18  ASP18       0.2622
     22  O         41.7070   21.0050   42.7760 O.2    18  ASP18      -0.2715
     23  CB        38.8320   21.1020   42.8640 C.3    18  ASP18       0.1450
     24  CG        38.2840   22.3050   42.1090 C.2    18  ASP18       0.3671
     25  OD1       37.9390   22.1680   40.9090 O.co2  18  ASP18      -0.2456
     26  OD2       38.1990   23.3960   42.7220 O.co2  18  ASP18      -0.2456
     27  N         41.6000   18.7780   42.4900 N.am   19  ALA19      -0.1963
     28  CA        42.9580   18.5580   42.9920 C.3    19  ALA19       0.1728
     29  C         44.0370   19.1340   42.0750 C.2    19  ALA19       0.2617
     30  O         45.0040   19.7380   42.5540 O.2    19  ALA19      -0.2715
     31  CB        43.2050   17.0920   43.2330 C.3    19  ALA19       0.0334
     32  N         43.8670   18.9470   40.7660 N.am   20  GLY20      -0.1940
     33  CA        44.8480   19.4000   39.7790 C.3    20  GLY20       0.2014
     34  C         45.1630   18.3310   38.7480 C.2    20  GLY20       0.2639
     35  O         46.1800   18.3950   38.0510 O.2    20  GLY20      -0.2714
     36  N         44.2720   17.3510   38.6520 N.am   21  LYS21      -0.1963
     37  CA        44.3920   16.2400   37.7140 C.3    21  LYS21       0.1728
     38  C         44.6390   16.6990   36.2730 C.2    21  LYS21       0.2617
     39  O         45.5740   16.2280   35.6230 O.2    21  LYS21      -0.2715
     40  CB        43.1450   15.3570   37.8290 C.3    21  LYS21       0.0311
     41  CG        42.8850   14.3850   36.6910 C.3    21  LYS21       0.0038
     42  CD        41.7520   13.4150   37.0470 C.3    21  LYS21       0.0206
     43  CE        40.3870   14.1070   37.2410 C.3    21  LYS21       0.1093
     44  NZ        40.1510   14.5970   38.6380 N.3    21  LYS21      -0.1314
     45  N         43.8220   17.6300   35.7850 N.am   22  THR22      -0.1937
     46  CA        43.9990   18.1490   34.4230 C.3    22  THR22       0.2028
     47  C         45.2300   19.0560   34.3040 C.2    22  THR22       0.2642
     48  O         46.0310   18.9010   33.3780 O.2    22  THR22      -0.2714
     49  CB        42.7320   18.8520   33.8850 C.3    22  THR22       0.1808
     50  OG1       41.5900   18.0150   34.1050 O.3    22  THR22      -0.2208
     51  CG2       42.8580   19.1110   32.4040 C.3    22  THR22       0.0379
     52  N         45.3810   19.9870   35.2450 N.am   23  THR23      -0.1950
     53  CA        46.5210   20.9020   35.2380 C.3    23  THR23       0.1897
     54  C         47.8360   20.1270   35.2130 C.2    23  THR23       0.2313
     55  O         48.6810   20.3730   34.3440 O.2    23  THR23      -0.2863
     56  CB        46.4760   21.9070   36.4230 C.3    23  THR23       0.1794
     57  OG1       45.5400   22.9470   36.1240 O.3    23  THR23      -0.2208
     58  CG2       47.8220   22.5540   36.6520 C.3    23  THR23       0.0378
     59  N         35.4520   11.3140   36.9480 N.3    59  HIS59      -0.1241
     60  CA        34.2140   11.2510   37.7540 C.3    59  HIS59       0.1621
     61  C         33.9770    9.7930   38.1800 C.2    59  HIS59       0.2264
     62  O         33.4610    8.9730   37.4090 O.2    59  HIS59      -0.2867
     63  CB        33.0150   11.8360   36.9900 C.3    59  HIS59       0.0745
     64  CG        31.7450   11.8940   37.7840 C.ar   59  HIS59       0.0817
     65  ND1       31.1130   10.7680   38.2680 N.ar   59  HIS59      -0.2268
     66  CD2       30.9700   12.9440   38.1470 C.ar   59  HIS59       0.1154
     67  CE1       30.0150   11.1230   38.9120 C.ar   59  HIS59       0.1986
     68  NE2       29.9040   12.4390   38.8500 N.ar   59  HIS59      -0.2212
     69  N         49.5530   18.6750   45.5480 N.3   109  ASN109     -0.1225
     70  CA        49.4790   19.8450   44.7080 C.3   109  ASN109      0.1785
     71  C         48.9970   21.0600   45.5010 C.2   109  ASN109      0.2597
     72  O         48.4020   20.9170   46.5730 O.2   109  ASN109     -0.2718
     73  CB        48.5470   19.5640   43.5230 C.3   109  ASN109      0.1169
     74  CG        48.6710   20.5950   42.4110 C.2   109  ASN109      0.2627
     75  OD1       47.6740   20.9800   41.7980 O.2   109  ASN109     -0.2716
     76  ND2       49.8940   21.0510   42.1510 N.am  109  ASN109     -0.0877
     77  N         49.2720   22.2450   44.9560 N.am  110  LYS110     -0.1980
     78  CA        48.7950   23.5380   45.4720 C.3   110  LYS110      0.1596
     79  C         49.5220   24.0000   46.7270 C.2   110  LYS110      0.2287
     80  O         48.9070   24.5600   47.6350 O.2   110  LYS110     -0.2864
     81  CB        47.2730   23.5500   45.6840 C.3   110  LYS110      0.0298
     82  CG        46.4760   23.2530   44.4310 C.3   110  LYS110      0.0038
     83  CD        44.9890   23.3790   44.6620 C.3   110  LYS110      0.0206
     84  CE        44.2390   22.9750   43.4130 C.3   110  LYS110      0.1093
     85  NZ        42.7930   23.2330   43.5680 N.3   110  LYS110     -0.1314
     86  N         51.2930   26.3600   46.8280 N.3   112  ASP112     -0.1225
     87  CA        51.3480   27.8080   46.6770 C.3   112  ASP112      0.1805
     88  C         50.1130   28.5050   47.2540 C.2   112  ASP112      0.2597
     89  O         50.1770   29.6810   47.6180 O.2   112  ASP112     -0.2718
     90  CB        51.4900   28.1740   45.2010 C.3   112  ASP112      0.1424
     91  CG        50.2080   27.9540   44.4280 C.2   112  ASP112      0.3668
     92  OD1       49.8880   26.7860   44.1140 O.co2 112  ASP112     -0.2456
     93  OD2       49.5170   28.9530   44.1480 O.co2 112  ASP112     -0.2456
     94  N         48.9970   27.7800   47.3230 N.am  113  LYS113     -0.1979
     95  CA        47.7190   28.3460   47.7500 C.3   113  LYS113      0.1596
     96  C         47.6650   28.4970   49.2690 C.2   113  LYS113      0.2287
     97  O         48.1690   27.6370   49.9960 O.2   113  LYS113     -0.2864
     98  CB        46.5610   27.4700   47.2590 C.3   113  LYS113      0.0298
     99  CG        45.1720   28.0340   47.5400 C.3   113  LYS113      0.0038
    100  CD        44.0810   27.1380   46.9790 C.3   113  LYS113      0.0206
    101  CE        43.7040   27.5290   45.5630 C.3   113  LYS113      0.1093
    102  NZ        42.8830   28.7730   45.5500 N.3   113  LYS113     -0.1314
    103  N         53.5550   23.1080   43.1720 N.3   234  SER234     -0.1202
    104  CA        52.4640   23.8040   42.5210 C.3   234  SER234      0.2020
    105  C         52.5050   23.5550   41.0240 C.2   234  SER234      0.2619
    106  O         53.4580   23.9550   40.3430 O.2   234  SER234     -0.2717
    107  CB        52.5250   25.3040   42.8020 C.3   234  SER234      0.2103
    108  OG        51.6230   25.9960   41.9540 O.3   234  SER234     -0.2182
    109  N         51.4660   22.8960   40.5200 N.am  235  ALA235     -0.1965
    110  CA        51.3360   22.6470   39.0910 C.3   235  ALA235      0.1728
    111  C         51.0310   23.9460   38.3640 C.2   235  ALA235      0.2616
    112  O         51.6000   24.2050   37.3050 O.2   235  ALA235     -0.2715
    113  CB        50.2700   21.6140   38.8180 C.3   235  ALA235      0.0334
    114  N         50.1580   24.7710   38.9410 N.am  236  LEU236     -0.1977
    115  CA        49.8250   26.0710   38.3410 C.3   236  LEU236      0.1596
    116  C         51.0540   26.9720   38.2420 C.2   236  LEU236      0.2287
    117  O         51.3440   27.5150   37.1700 O.2   236  LEU236     -0.2864
    118  CB        48.7350   26.7940   39.1400 C.3   236  LEU236      0.0297
    119  CG        47.5960   27.4980   38.3900 C.3   236  LEU236      0.0022
    120  CD1       46.7840   28.3280   39.3690 C.3   236  LEU236      0.0001
    121  CD2       48.0830   28.3560   37.2300 C.3   236  LEU236      0.0001
@<TRIPOS>BOND
     1    51    49    1
     2    48    47    2
     3    49    50    1
     4    49    46    1
     5    47    46    1
     6    47    52   am
     7    55    54    2
     8    46    45    1
     9    54    53    1
    10    53    52    1
    11    53    56    1
    12    39    38    2
    13    45    38   am
    14    57    56    1
    15    38    37    1
    16    56    58    1
    17    41    42    1
    18    41    40    1
    19    59    60    1
    20    63    60    1
    21    63    64    1
    22    42    43    1
    23   117   116    2
    24   121   119    1
    25    43    44    1
    26   112   111    2
    27    62    61    2
    28    37    40    1
    29    37    36    1
    30    60    61    1
    31    64    66   ar
    32    64    65   ar
    33    35    34    2
    34    66    68   ar
    35   116   115    1
    36    65    67   ar
    37   115   114    1
    38   115   118    1
    39   111   114   am
    40   111   110    1
    41   119   118    1
    42   119   120    1
    43    36    34   am
    44    34    33    1
    45   113   110    1
    46    68    67   ar
    47   110   109    1
    48    33    32    1
    49   106   105    2
    50   109   105   am
    51    32    29   am
    52    25    24   ar
    53    18    16    1
    54   105   104    1
    55    16    15    1
    56    19    20    1
    57    19    13   am
    58    75    74    2
    59   108   107    1
    60    20    21    1
    61    20    23    1
    62    15    12    1
    63    15    17    1
    64    29    30    2
    65    29    28    1
    66    12    13    1
    67    12    11    1
    68    24    26   ar
    69    24    23    1
    70    76    74   am
    71    74    73    1
    72    21    27   am
    73    21    22    2
    74    27    28    1
    75   104   107    1
    76   104   103    1
    77     4     3    2
    78    13    14    2
    79    11     3   am
    80    28    31    1
    81     3     2    1
    82    84    85    1
    83    84    83    1
    84    73    70    1
    85     1     2    1
    86     2     5    1
    87    92    91   ar
    88    93    91   ar
    89    91    90    1
    90    82    83    1
    91    82    81    1
    92    70    71    1
    93    70    69    1
    94    77    78    1
    95    77    71   am
    96    90    87    1
    97     5     6    1
    98    78    81    1
    99    78    79    1
   100    71    72    2
   101   102   101    1
   102   101   100    1
   103     6     8   ar
   104     6     7   ar
   105     8    10   ar
   106     7     9   ar
   107    10     9   ar
   108    87    86    1
   109    87    88    1
   110    79    80    2
   111   100    99    1
   112    88    94   am
   113    88    89    2
   114    98    99    1
   115    98    95    1
   116    94    95    1
   117    95    96    1
   118    96    97    2
