@<TRIPOS>MOLECULE
tmp/2j7mA00.pdb
 110 106 0 0 0
SMALL
GASTEIGER

@<TRIPOS>ATOM
      1  N         40.2470   27.3580   18.2760 N.3    17  GLU17      -0.1245
      2  CA        41.0760   26.9030   19.3940 C.3    17  GLU17       0.1567
      3  C         42.4940   26.8490   18.8180 C.2    17  GLU17       0.2260
      4  O         42.6670   26.9690   17.6070 O.2    17  GLU17      -0.2867
      5  CB        40.6510   25.5040   19.8570 C.3    17  GLU17       0.0388
      6  CG        40.8040   24.3980   18.7670 C.3    17  GLU17       0.1160
      7  CD        40.2120   23.0630   19.2030 C.2    17  GLU17       0.3649
      8  OE1       40.5850   22.5710   20.2640 O.co2  17  GLU17      -0.2457
      9  OE2       39.3530   22.5040   18.5040 O.co2  17  GLU17      -0.2457
     10  N         47.0490   18.8170   21.0490 N.3    32  PHE32      -0.1241
     11  CA        46.7820   18.0730   19.8090 C.3    32  PHE32       0.1605
     12  C         46.6830   18.9860   18.5960 C.2    32  PHE32       0.2264
     13  O         46.4310   20.2050   18.7170 O.2    32  PHE32      -0.2867
     14  CB        45.4650   17.2890   19.9340 C.3    32  PHE32       0.0534
     15  CG        44.2960   18.1480   20.3310 C.ar   32  PHE32      -0.0203
     16  CD1       43.4610   18.7170   19.3590 C.ar   32  PHE32      -0.0042
     17  CD2       44.0460   18.4130   21.6770 C.ar   32  PHE32      -0.0042
     18  CE1       42.4270   19.5290   19.7090 C.ar   32  PHE32      -0.0003
     19  CE2       42.9900   19.2180   22.0500 C.ar   32  PHE32      -0.0003
     20  CZ        42.1760   19.7770   21.0690 C.ar   32  PHE32      -0.0000
     21  N         44.3280   19.6800   15.3770 N.3    34  HIS34      -0.1241
     22  CA        42.9850   19.5010   14.8440 C.3    34  HIS34       0.1621
     23  C         43.0260   20.0400   13.4350 C.2    34  HIS34       0.2264
     24  O         43.5290   21.1580   13.2140 O.2    34  HIS34      -0.2867
     25  CB        41.9700   20.3040   15.6630 C.3    34  HIS34       0.0745
     26  CG        40.5780   19.7380   15.6420 C.ar   34  HIS34       0.0817
     27  ND1       39.8890   19.4750   14.4720 N.ar   34  HIS34      -0.2268
     28  CD2       39.7450   19.3900   16.6550 C.ar   34  HIS34       0.1154
     29  CE1       38.7010   18.9750   14.7670 C.ar   34  HIS34       0.1986
     30  NE2       38.5850   18.9310   16.0850 N.ar   34  HIS34      -0.2212
     31  N         38.3120   23.1890   11.5320 N.3    37  TRP37      -0.1241
     32  CA        36.8830   23.0410   11.6560 C.3    37  TRP37       0.1605
     33  C         36.1290   24.3600   11.6170 C.2    37  TRP37       0.2264
     34  O         34.9410   24.3930   11.2500 O.2    37  TRP37      -0.2867
     35  CB        36.5110   22.2630   12.9220 C.3    37  TRP37       0.0550
     36  CG        37.0190   22.8100   14.2510 C.ar   37  TRP37       0.0003
     37  CD1       38.1680   22.4480   14.9010 C.ar   37  TRP37       0.0946
     38  CD2       36.3600   23.7560   15.1050 C.ar   37  TRP37       0.0152
     39  NE1       38.2780   23.1300   16.0890 N.ar   37  TRP37      -0.2442
     40  CE2       37.1850   23.9390   16.2430 C.ar   37  TRP37       0.0810
     41  CE3       35.1530   24.4760   15.0150 C.ar   37  TRP37       0.0012
     42  CZ2       36.8410   24.8010   17.2980 C.ar   37  TRP37       0.0191
     43  CZ3       34.8130   25.3490   16.0520 C.ar   37  TRP37       0.0001
     44  CH2       35.6670   25.5040   17.1850 C.ar   37  TRP37       0.0015
     45  N         43.8730   12.2900   20.2690 N.3    66  ARG66      -0.1245
     46  CA        43.3930   13.3300   21.1610 C.3    66  ARG66       0.1563
     47  C         42.7290   12.6640   22.3900 C.2    66  ARG66       0.2260
     48  O         41.9610   11.6870   22.2630 O.2    66  ARG66      -0.2867
     49  CB        42.4190   14.2150   20.3680 C.3    66  ARG66       0.0307
     50  CG        41.5840   15.1200   21.1850 C.3    66  ARG66       0.0489
     51  CD        40.8210   16.0770   20.3330 C.3    66  ARG66       0.2205
     52  NE        40.2410   17.1150   21.1800 N.pl3  66  ARG66      -0.0865
     53  CZ        39.3590   18.0100   20.7580 C.cat  66  ARG66       0.5346
     54  NH1       38.9630   17.9910   19.4980 N.pl3  66  ARG66       0.1354
     55  NH2       38.8940   18.9230   21.5910 N.pl3  66  ARG66       0.1354
     56  N         40.8180   14.1600   24.9880 N.3    68  ASP68      -0.1225
     57  CA        39.6350   14.7840   25.5860 C.3    68  ASP68       0.1805
     58  C         38.3840   14.7080   24.6920 C.2    68  ASP68       0.2598
     59  O         37.2830   15.0240   25.1200 O.2    68  ASP68      -0.2718
     60  CB        39.9320   16.2470   25.9580 C.3    68  ASP68       0.1424
     61  CG        40.2330   17.1160   24.7400 C.2    68  ASP68       0.3668
     62  OD1       41.0960   16.7140   23.9250 O.co2  68  ASP68      -0.2456
     63  OD2       39.6190   18.2060   24.5940 O.co2  68  ASP68      -0.2456
     64  N         38.5370   14.2650   23.4570 N.am   69  SER69      -0.1952
     65  CA        37.3940   14.2120   22.5590 C.3    69  SER69       0.1924
     66  C         37.6620   13.1220   21.5440 C.2    69  SER69       0.2314
     67  O         38.8190   12.8850   21.1850 O.2    69  SER69      -0.2863
     68  CB        37.1890   15.5800   21.8650 C.3    69  SER69       0.2116
     69  OG        36.2440   15.5280   20.8130 O.3    69  SER69      -0.2180
     70  N         36.4720   13.4430   18.5440 N.3    71  ASN71      -0.1240
     71  CA        36.3910   14.1930   17.2750 C.3    71  ASN71       0.1653
     72  C         37.6910   14.1470   16.4850 C.2    71  ASN71       0.2266
     73  O         38.7180   14.6540   16.9590 O.2    71  ASN71      -0.2867
     74  CB        36.0480   15.6720   17.5310 C.3    71  ASN71       0.1155
     75  CG        34.5610   15.9390   17.6840 C.2    71  ASN71       0.2627
     76  OD1       34.1690   17.0120   18.1370 O.2    71  ASN71      -0.2716
     77  ND2       33.7370   14.9970   17.2990 N.am   71  ASN71      -0.0877
     78  N         32.1170   12.5890   17.8440 N.3   125  ASP125     -0.1225
     79  CA        30.9980   12.4740   18.7730 C.3   125  ASP125      0.1805
     80  C         29.6990   13.1160   18.2280 C.2   125  ASP125      0.2598
     81  O         28.6420   13.0590   18.8720 O.2   125  ASP125     -0.2718
     82  CB        31.3700   12.9870   20.1780 C.3   125  ASP125      0.1424
     83  CG        31.6180   14.4710   20.2310 C.2   125  ASP125      0.3668
     84  OD1       32.3970   14.8920   21.0980 O.co2 125  ASP125     -0.2456
     85  OD2       31.0360   15.2340   19.4450 O.co2 125  ASP125     -0.2456
     86  N         29.7960   13.6830   17.0240 N.am  126  GLN126     -0.1965
     87  CA        28.6740   14.2660   16.3010 C.3   126  GLN126      0.1733
     88  C         28.0490   13.2590   15.3420 C.2   126  GLN126      0.2616
     89  O         28.7380   12.4570   14.6930 O.2   126  GLN126     -0.2715
     90  CB        29.1320   15.5210   15.5470 C.3   126  GLN126      0.0408
     91  CG        29.8760   16.5400   16.4190 C.3   126  GLN126      0.0908
     92  CD        30.4760   17.6900   15.6240 C.2   126  GLN126      0.2608
     93  OE1       30.2180   17.8270   14.4090 O.2   126  GLN126     -0.2717
     94  NE2       31.2760   18.5270   16.2900 N.am  126  GLN126     -0.0878
     95  N         26.7250   13.3250   15.2470 N.am  127  ALA127     -0.1977
     96  CA        25.9090   12.3730   14.4700 C.3   127  ALA127      0.1597
     97  C         26.3130   12.2750   12.9940 C.2   127  ALA127      0.2287
     98  O         26.3950   11.1620   12.4170 O.2   127  ALA127     -0.2864
     99  CB        24.4010   12.7280   14.6100 C.3   127  ALA127      0.0319
    100  N         36.6330   15.4560   10.5590 N.3   133  PHE133     -0.1241
    101  CA        37.7160   15.9590   11.3980 C.3   133  PHE133      0.1605
    102  C         38.8890   15.0110   11.4100 C.2   133  PHE133      0.2264
    103  O         38.7530   13.8300   11.0470 O.2   133  PHE133     -0.2867
    104  CB        37.2270   16.1980   12.8300 C.3   133  PHE133      0.0534
    105  CG        35.9020   16.9080   12.9010 C.ar  133  PHE133     -0.0203
    106  CD1       34.7820   16.2660   13.4500 C.ar  133  PHE133     -0.0042
    107  CD2       35.7680   18.2020   12.3870 C.ar  133  PHE133     -0.0042
    108  CE1       33.5460   16.8990   13.4880 C.ar  133  PHE133     -0.0003
    109  CE2       34.5620   18.8500   12.4190 C.ar  133  PHE133     -0.0003
    110  CZ        33.4330   18.2010   12.9890 C.ar  133  PHE133     -0.0000
@<TRIPOS>BOND
     1   100   101    1
     2   103   102    2
     3    34    33    2
     4   101   102    1
     5   101   104    1
     6    31    32    1
     7    33    32    1
     8    32    35    1
     9   107   109   ar
    10   107   105   ar
    11    98    97    2
    12   109   110   ar
    13   104   105    1
    14   105   106   ar
    15    35    36    1
    16   110   108   ar
    17    97    96    1
    18    24    23    2
    19    23    22    1
    20   106   108   ar
    21    36    37   ar
    22    36    38   ar
    23    93    92    2
    24    96    99    1
    25    96    95    1
    26    27    29   ar
    27    27    26   ar
    28    89    88    2
    29    29    30   ar
    30    22    21    1
    31    22    25    1
    32    37    39   ar
    33    41    38   ar
    34    41    43   ar
    35    38    40   ar
    36    95    88   am
    37    88    87    1
    38    90    87    1
    39    90    91    1
    40    92    94   am
    41    92    91    1
    42    26    25    1
    43    26    28   ar
    44    43    44   ar
    45    30    28   ar
    46    39    40   ar
    47    40    42   ar
    48    87    86    1
    49    72    73    2
    50    72    71    1
    51    86    80   am
    52    44    42   ar
    53    71    74    1
    54    71    70    1
    55    77    75   am
    56    74    75    1
    57     4     3    2
    58    75    76    2
    59    78    79    1
    60    80    79    1
    61    80    81    2
    62     1     2    1
    63     9     7   ar
    64    12    13    2
    65    12    11    1
    66     6     7    1
    67     6     5    1
    68    79    82    1
    69     3     2    1
    70     7     8   ar
    71    16    18   ar
    72    16    15   ar
    73     2     5    1
    74    85    83   ar
    75    54    53    1
    76    18    20   ar
    77    11    14    1
    78    11    10    1
    79    14    15    1
    80    82    83    1
    81    83    84   ar
    82    45    46    1
    83    15    17   ar
    84    51    52    1
    85    51    50    1
    86    49    46    1
    87    49    50    1
    88    53    52    2
    89    53    55    1
    90    69    68    1
    91    20    19   ar
    92    46    47    1
    93    67    66    2
    94    66    65    1
    95    17    19   ar
    96    68    65    1
    97    48    47    2
    98    65    64    1
    99    64    58   am
   100    62    61   ar
   101    63    61   ar
   102    58    59    2
   103    58    57    1
   104    61    60    1
   105    56    57    1
   106    57    60    1
