@<TRIPOS>MOLECULE
tmp/2j7qA00.pdb
 79 75 0 0 0
SMALL
GASTEIGER

@<TRIPOS>ATOM
      1  N         -6.2250   17.4370   -8.5940 N.3     9  GLN9       -0.1245
      2  CA        -7.1880   16.3690   -8.4400 C.3     9  GLN9        0.1566
      3  C         -7.6570   16.1990   -6.9820 C.2     9  GLN9        0.2260
      4  O         -8.6620   15.5540   -6.7310 O.2     9  GLN9       -0.2867
      5  CB        -6.5860   15.0640   -8.9310 C.3     9  GLN9        0.0367
      6  CG        -5.4100   14.6470   -8.1080 C.3     9  GLN9        0.0905
      7  CD        -4.7360   13.4310   -8.6560 C.2     9  GLN9        0.2608
      8  OE1       -5.1480   12.8980   -9.6960 O.2     9  GLN9       -0.2717
      9  NE2       -3.6550   13.0190   -8.0000 N.am    9  GLN9       -0.0878
     10  N         -8.3090   12.7060   -5.1250 N.3    19  GLY19      -0.1210
     11  CA        -6.9430   12.2660   -4.8860 C.3    19  GLY19       0.1956
     12  C         -6.6910   10.9490   -5.5850 C.2    19  GLY19       0.2612
     13  O         -5.7010   10.7970   -6.3080 O.2    19  GLY19      -0.2717
     14  N         -7.6320   10.0280   -5.4670 N.am   20  SER20      -0.1952
     15  CA        -7.4450    8.6470   -5.9430 C.3    20  SER20       0.1924
     16  C         -7.7980    8.3960   -7.4030 C.2    20  SER20       0.2314
     17  O         -7.6370    7.2590   -7.8950 O.2    20  SER20      -0.2863
     18  CB        -8.2240    7.6940   -5.0670 C.3    20  SER20       0.2116
     19  OG        -7.8240    7.8620   -3.7100 O.3    20  SER20      -0.2180
     20  N         -6.4880    9.7040  -10.0620 N.3    22  CYS22      -0.1235
     21  CA        -5.3950   10.0840  -10.9700 C.3    22  CYS22       0.1677
     22  C         -5.3990    9.3360  -12.3010 C.2    22  CYS22       0.2270
     23  O         -5.3270    9.9560  -13.3930 O.2    22  CYS22      -0.2867
     24  CB        -4.0160   10.0050  -10.2730 C.3    22  CYS22       0.0956
     25  SG        -3.5270    8.3480   -9.7620 S.3    22  CYS22      -0.0801
     26  N         -6.7200    2.4240   -5.2870 N.3    73  TYR73      -0.1227
     27  CA        -6.0030    2.8100   -6.5140 C.3    73  TYR73       0.1736
     28  C         -6.2480    1.8040   -7.6410 C.2    73  TYR73       0.2595
     29  O         -6.6680    0.6880   -7.3850 O.2    73  TYR73      -0.2718
     30  CB        -4.4790    2.9470   -6.2140 C.3    73  TYR73       0.0548
     31  CG        -4.1460    3.9980   -5.1350 C.ar   73  TYR73      -0.0200
     32  CD1       -5.1110    4.8940   -4.6780 C.ar   73  TYR73      -0.0009
     33  CD2       -2.8580    4.0920   -4.6060 C.ar   73  TYR73      -0.0009
     34  CE1       -4.8180    5.8490   -3.6760 C.ar   73  TYR73       0.0417
     35  CE2       -2.5500    5.0520   -3.6000 C.ar   73  TYR73       0.0417
     36  CZ        -3.5490    5.9120   -3.1370 C.ar   73  TYR73       0.1957
     37  OH        -3.2720    6.8680   -2.1540 O.3    73  TYR73      -0.2866
     38  N         -5.9670    2.1980   -8.8850 N.am   74  ARG74      -0.1980
     39  CA        -6.4610    1.4810  -10.0430 C.3    74  ARG74       0.1597
     40  C         -5.3490    0.8800  -10.9070 C.2    74  ARG74       0.2287
     41  O         -4.2240    1.3980  -10.9530 O.2    74  ARG74      -0.2864
     42  CB        -7.3410    2.4190  -10.8830 C.3    74  ARG74       0.0334
     43  CG        -8.6440    2.8090  -10.2120 C.3    74  ARG74       0.0492
     44  CD        -9.6200    1.6160  -10.1330 C.3    74  ARG74       0.2205
     45  NE       -10.4960    1.8020   -8.9700 N.pl3  74  ARG74      -0.0865
     46  CZ       -10.3600    1.2100   -7.7910 C.cat  74  ARG74       0.5346
     47  NH1       -9.4470    0.2690   -7.5640 N.pl3  74  ARG74       0.1354
     48  NH2      -11.2250    1.5150   -6.8500 N.pl3  74  ARG74       0.1354
     49  N          2.7630    4.9260  -14.5330 N.3   134  THR134     -0.1218
     50  CA         2.6990    5.0400  -13.0780 C.3   134  THR134      0.1862
     51  C          4.1130    4.8740  -12.4800 C.2   134  THR134      0.2287
     52  O          4.8640    3.9680  -12.8610 O.2   134  THR134     -0.2866
     53  CB         1.6820    4.0470  -12.4860 C.3   134  THR134      0.1770
     54  OG1        0.3820    4.3200  -13.0370 O.3   134  THR134     -0.2211
     55  CG2        1.6170    4.1360  -10.9390 C.3   134  THR134      0.0375
     56  N          2.8330    5.6770   -6.6430 N.3   137  VAL137     -0.1231
     57  CA         1.3710    5.6050   -6.7070 C.3   137  VAL137      0.1692
     58  C          0.7950    6.6200   -7.6970 C.2   137  VAL137      0.2592
     59  O         -0.4080    6.6770   -7.8960 O.2   137  VAL137     -0.2718
     60  CB         0.7150    5.8310   -5.3180 C.3   137  VAL137      0.0266
     61  CG1        1.2940    4.8500   -4.2670 C.3   137  VAL137      0.0020
     62  CG2        0.9070    7.2670   -4.8660 C.3   137  VAL137      0.0020
     63  N          1.6600    7.3950   -8.3280 N.am  138  HIS138     -0.1962
     64  CA         1.2320    8.5590   -9.1260 C.3   138  HIS138      0.1787
     65  C          1.2360    8.2610  -10.5950 C.2   138  HIS138      0.2620
     66  O          2.3100    8.0480  -11.1940 O.2   138  HIS138     -0.2715
     67  CB         2.0910    9.7940   -8.8340 C.3   138  HIS138      0.0785
     68  CG         1.8780   10.3540   -7.4600 C.ar  138  HIS138      0.0821
     69  ND1        0.7070   10.9670   -7.0820 N.ar  138  HIS138     -0.2267
     70  CD2        2.6540   10.3170   -6.3560 C.ar  138  HIS138      0.1154
     71  CE1        0.7980   11.3360   -5.8160 C.ar  138  HIS138      0.1986
     72  NE2        1.9650   10.9440   -5.3520 N.ar  138  HIS138     -0.2212
     73  N          0.0410    8.2860  -11.1820 N.am  139  THR139     -0.1951
     74  CA        -0.1310    8.0850  -12.6300 C.3   139  THR139      0.1897
     75  C         -0.0810    9.4130  -13.3930 C.2   139  THR139      0.2313
     76  O         -0.6520   10.4480  -12.9550 O.2   139  THR139     -0.2863
     77  CB        -1.4520    7.2990  -12.9460 C.3   139  THR139      0.1794
     78  OG1       -1.5100    6.1050  -12.1470 O.3   139  THR139     -0.2208
     79  CG2       -1.5520    6.9560  -14.4080 C.3   139  THR139      0.0378
@<TRIPOS>BOND
     1    49    50    1
     2    79    77    1
     3    23    22    2
     4    75    76    2
     5    75    74    1
     6    50    53    1
     7    50    51    1
     8    54    53    1
     9    77    74    1
    10    77    78    1
    11    52    51    2
    12    74    73    1
    13    53    55    1
    14    22    21    1
    15    66    65    2
    16    73    65   am
    17    21    24    1
    18    21    20    1
    19    41    40    2
    20    40    39    1
    21    42    43    1
    22    42    39    1
    23    65    64    1
    24    24    25    1
    25    43    44    1
    26    44    45    1
    27    39    38    1
    28     8     7    2
    29    64    67    1
    30    64    63    1
    31    45    46    2
    32     5     2    1
    33     5     6    1
    34    38    28   am
    35    67    68    1
    36     7     6    1
    37     7     9   am
    38     1     2    1
    39     2     3    1
    40    63    58   am
    41    59    58    2
    42    17    16    2
    43    46    47    1
    44    46    48    1
    45    58    57    1
    46    28    29    2
    47    28    27    1
    48    68    69   ar
    49    68    70   ar
    50    16    15    1
    51    69    71   ar
    52     3     4    2
    53    57    56    1
    54    57    60    1
    55    27    30    1
    56    27    26    1
    57    70    72   ar
    58    13    12    2
    59    30    31    1
    60    15    14    1
    61    15    18    1
    62    71    72   ar
    63    12    14   am
    64    12    11    1
    65    60    62    1
    66    60    61    1
    67    31    32   ar
    68    31    33   ar
    69    10    11    1
    70    18    19    1
    71    32    34   ar
    72    33    35   ar
    73    34    36   ar
    74    35    36   ar
    75    36    37    1
