@<TRIPOS>MOLECULE
tmp/2j7tA00.pdb
 177 167 0 0 0
SMALL
GASTEIGER

@<TRIPOS>ATOM
      1  N         -0.5860   41.7010   17.8940 N.3    18  LEU18      -0.1245
      2  CA        -0.6910   40.2820   18.2260 C.3    18  LEU18       0.1561
      3  C         -0.4860   39.4030   16.9980 C.2    18  LEU18       0.2260
      4  O          0.1040   38.3280   17.0930 O.2    18  LEU18      -0.2867
      5  CB        -2.0520   39.9690   18.8580 C.3    18  LEU18       0.0270
      6  CG        -2.1480   40.1590   20.3700 C.3    18  LEU18       0.0019
      7  CD1       -3.5940   40.0340   20.8270 C.3    18  LEU18       0.0001
      8  CD2       -1.2600   39.1620   21.0930 C.3    18  LEU18       0.0001
      9  N         -4.1260   42.1800   13.8670 N.3    26  VAL26      -0.1245
     10  CA        -4.7600   42.1110   15.1700 C.3    26  VAL26       0.1561
     11  C         -3.8340   42.8330   16.1540 C.2    26  VAL26       0.2260
     12  O         -2.6540   42.4850   16.2680 O.2    26  VAL26      -0.2867
     13  CB        -4.9680   40.6440   15.6260 C.3    26  VAL26       0.0252
     14  CG1       -5.7130   40.5930   16.9550 C.3    26  VAL26       0.0019
     15  CG2       -5.7220   39.8500   14.5610 C.3    26  VAL26       0.0019
     16  N         -7.6670   42.1080   22.6210 N.3    39  ALA39      -0.1231
     17  CA        -7.2940   41.9080   21.2300 C.3    39  ALA39       0.1694
     18  C         -8.1550   42.8930   20.4520 C.2    39  ALA39       0.2592
     19  O         -9.3420   43.0530   20.7490 O.2    39  ALA39      -0.2718
     20  CB        -7.5650   40.4920   20.7940 C.3    39  ALA39       0.0304
     21  N         -7.5580   43.5720   19.4840 N.am   40  ALA40      -0.1966
     22  CA        -8.2540   44.6280   18.7720 C.3    40  ALA40       0.1728
     23  C         -8.0810   44.5140   17.2700 C.2    40  ALA40       0.2616
     24  O         -6.9920   44.2050   16.7760 O.2    40  ALA40      -0.2715
     25  CB        -7.7620   45.9970   19.2590 C.3    40  ALA40       0.0334
     26  N         -9.1760   44.7470   16.5560 N.am   41  LYS41      -0.1977
     27  CA        -9.1260   45.0740   15.1330 C.3    41  LYS41       0.1596
     28  C         -9.6660   46.4920   14.9290 C.2    41  LYS41       0.2287
     29  O        -10.7580   46.8070   15.3940 O.2    41  LYS41      -0.2864
     30  CB        -9.9300   44.0600   14.3100 C.3    41  LYS41       0.0298
     31  CG        -9.1600   42.7570   14.1030 C.3    41  LYS41       0.0038
     32  CD        -9.7810   41.9280   13.0000 C.3    41  LYS41       0.0206
     33  CE        -8.9090   40.7710   12.5330 C.3    41  LYS41       0.1093
     34  NZ        -9.2820   40.2810   11.1940 N.3    41  LYS41      -0.1314
     35  N        -18.2850   42.3160    9.3680 N.3    50  TYR50      -0.1241
     36  CA       -17.8290   42.6300   10.7190 C.3    50  TYR50       0.1605
     37  C        -18.9950   43.0100   11.6320 C.2    50  TYR50       0.2264
     38  O        -18.9720   42.6810   12.8120 O.2    50  TYR50      -0.2867
     39  CB       -16.7450   43.7210   10.7110 C.3    50  TYR50       0.0534
     40  CG       -15.3660   43.1920   10.3580 C.ar   50  TYR50      -0.0201
     41  CD1      -14.7430   43.5320    9.1550 C.ar   50  TYR50      -0.0009
     42  CD2      -14.6880   42.3470   11.2260 C.ar   50  TYR50      -0.0009
     43  CE1      -13.4720   43.0350    8.8320 C.ar   50  TYR50       0.0417
     44  CE2      -13.4230   41.8390   10.9130 C.ar   50  TYR50       0.0417
     45  CZ       -12.8230   42.1890    9.7170 C.ar   50  TYR50       0.1957
     46  OH       -11.5730   41.6900    9.4180 O.3    50  TYR50      -0.2866
     47  N        -20.5610   39.8410   12.6980 N.3    53  GLU53      -0.1245
     48  CA       -19.6300   39.2550   13.6520 C.3    53  GLU53       0.1567
     49  C        -19.7850   39.8810   15.0370 C.2    53  GLU53       0.2260
     50  O        -19.7980   39.1740   16.0410 O.2    53  GLU53      -0.2867
     51  CB       -18.1870   39.3940   13.1700 C.3    53  GLU53       0.0388
     52  CG       -17.2150   38.5220   13.9660 C.3    53  GLU53       0.1160
     53  CD       -15.8070   38.5010   13.3990 C.2    53  GLU53       0.3649
     54  OE1      -14.8990   38.0250   14.1140 O.co2  53  GLU53      -0.2457
     55  OE2      -15.6090   38.9540   12.2530 O.co2  53  GLU53      -0.2457
     56  N        -20.8730   38.0060   18.4770 N.3    57  LEU57      -0.1245
     57  CA       -20.0230   38.1370   19.6560 C.3    57  LEU57       0.1561
     58  C        -20.8120   38.6580   20.8530 C.2    57  LEU57       0.2260
     59  O        -20.7210   38.1040   21.9440 O.2    57  LEU57      -0.2867
     60  CB       -18.8380   39.0600   19.3660 C.3    57  LEU57       0.0270
     61  CG       -17.7630   38.4460   18.4730 C.3    57  LEU57       0.0019
     62  CD1      -16.7960   39.5050   17.9570 C.3    57  LEU57       0.0001
     63  CD2      -17.0180   37.3490   19.2080 C.3    57  LEU57       0.0001
     64  N        -14.9340   33.8410   23.6270 N.3    66  VAL66      -0.1245
     65  CA       -14.3470   35.1880   23.7590 C.3    66  VAL66       0.1561
     66  C        -15.4070   36.2620   24.0340 C.2    66  VAL66       0.2260
     67  O        -16.4540   36.2420   23.4140 O.2    66  VAL66      -0.2867
     68  CB       -13.4560   35.5570   22.5310 C.3    66  VAL66       0.0252
     69  CG1      -12.2500   34.6630   22.5110 C.3    66  VAL66       0.0019
     70  CG2      -14.2290   35.4980   21.1730 C.3    66  VAL66       0.0019
     71  N        -13.0880   47.0080   17.0880 N.3    80  ILE80      -0.1245
     72  CA       -13.6860   45.8510   17.7210 C.3    80  ILE80       0.1561
     73  C        -12.7270   45.3050   18.7720 C.2    80  ILE80       0.2260
     74  O        -11.7140   44.6930   18.4370 O.2    80  ILE80      -0.2867
     75  CB       -14.0260   44.7470   16.6970 C.3    80  ILE80       0.0252
     76  CG1      -14.8090   45.3400   15.5140 C.3    80  ILE80       0.0019
     77  CG2      -14.8240   43.6600   17.3720 C.3    80  ILE80       0.0019
     78  CD1      -15.2430   44.3220   14.4800 C.3    80  ILE80       0.0001
     79  N        -11.9440   42.8310   21.8930 N.3    82  ILE82      -0.1231
     80  CA       -12.3520   41.5300   22.4560 C.3    82  ILE82       0.1692
     81  C        -11.3660   41.1460   23.5690 C.2    82  ILE82       0.2592
     82  O        -10.2050   41.5730   23.5360 O.2    82  ILE82      -0.2718
     83  CB       -12.4070   40.4170   21.3780 C.3    82  ILE82       0.0266
     84  CG1      -13.1610   40.8900   20.1250 C.3    82  ILE82       0.0019
     85  CG2      -13.0850   39.1670   21.9290 C.3    82  ILE82       0.0020
     86  CD1      -13.3870   39.7780   19.0800 C.3    82  ILE82       0.0001
     87  N        -11.8210   40.3440   24.5420 N.am   83  GLU83      -0.1966
     88  CA       -11.0080   40.0240   25.7210 C.3    83  GLU83       0.1733
     89  C         -9.6640   39.3950   25.3420 C.2    83  GLU83       0.2616
     90  O         -9.6160   38.4800   24.5340 O.2    83  GLU83      -0.2715
     91  CB       -11.7640   39.0960   26.6930 C.3    83  GLU83       0.0429
     92  CG       -11.6270   37.6000   26.3900 C.3    83  GLU83       0.1163
     93  CD       -12.3470   36.7100   27.3940 C.2    83  GLU83       0.3649
     94  OE1      -13.4810   36.2940   27.0960 O.co2  83  GLU83      -0.2457
     95  OE2      -11.7790   36.4270   28.4640 O.co2  83  GLU83      -0.2457
     96  N         -8.5830   39.8850   25.9360 N.am   84  PHE84      -0.1960
     97  CA        -7.2650   39.3070   25.7390 C.3    84  PHE84       0.1771
     98  C         -7.1420   37.9710   26.4780 C.2    84  PHE84       0.2620
     99  O         -7.6030   37.8490   27.6080 O.2    84  PHE84      -0.2715
    100  CB        -6.1920   40.2670   26.2330 C.3    84  PHE84       0.0574
    101  CG        -4.7950   39.7880   25.9770 C.ar   84  PHE84      -0.0200
    102  CD1       -4.3730   39.5190   24.6870 C.ar   84  PHE84      -0.0042
    103  CD2       -3.9020   39.6170   27.0170 C.ar   84  PHE84      -0.0042
    104  CE1       -3.0830   39.0830   24.4400 C.ar   84  PHE84      -0.0003
    105  CE2       -2.6070   39.1870   26.7750 C.ar   84  PHE84      -0.0003
    106  CZ        -2.1980   38.9200   25.4870 C.ar   84  PHE84      -0.0000
    107  N         -6.5310   36.9820   25.8220 N.am   85  CYS85      -0.1954
    108  CA        -6.3290   35.6310   26.3690 C.3    85  CYS85       0.1828
    109  C         -4.8390   35.3610   26.4900 C.2    85  CYS85       0.2467
    110  O         -4.2220   34.9140   25.5280 O.2    85  CYS85      -0.2730
    111  CB        -6.9570   34.5860   25.4410 C.3    85  CYS85       0.0996
    112  SG        -8.7450   34.7000   25.3190 S.3    85  CYS85      -0.0797
    113  N         -4.2470   35.6220   27.6800 N.am   86  PRO86      -0.2726
    114  CA        -2.7760   35.6290   27.7690 C.3    86  PRO86       0.1402
    115  C         -2.1070   34.2680   27.5510 C.2    86  PRO86       0.2269
    116  O         -0.9060   34.2030   27.2950 O.2    86  PRO86      -0.2865
    117  CB        -2.5000   36.1430   29.1880 C.3    86  PRO86       0.0296
    118  CG        -3.8050   36.6170   29.7200 C.3    86  PRO86       0.0237
    119  CD        -4.8710   35.8890   28.9820 C.3    86  PRO86       0.0939
    120  N         -2.7270   32.3280   25.0900 N.3    88  GLY88      -0.1210
    121  CA        -2.5530   32.1380   23.6490 C.3    88  GLY88       0.1956
    122  C         -3.3500   30.9930   23.0330 C.2    88  GLY88       0.2611
    123  O         -4.1310   30.3260   23.7180 O.2    88  GLY88      -0.2717
    124  N         -3.1420   30.7720   21.7350 N.am   89  ALA89      -0.1979
    125  CA        -3.8220   29.7020   20.9920 C.3    89  ALA89       0.1597
    126  C         -3.1880   28.3570   21.3020 C.2    89  ALA89       0.2287
    127  O         -1.9710   28.2550   21.4590 O.2    89  ALA89      -0.2864
    128  CB        -3.7730   29.9700   19.4610 C.3    89  ALA89       0.0319
    129  N         -0.2790   27.3770   19.0070 N.3    92  ALA92      -0.1245
    130  CA         0.9660   28.0450   19.4270 C.3    92  ALA92       0.1562
    131  C          1.6090   27.3790   20.6530 C.2    92  ALA92       0.2260
    132  O          2.8350   27.2610   20.7390 O.2    92  ALA92      -0.2867
    133  CB         0.7070   29.5130   19.6950 C.3    92  ALA92       0.0290
    134  N         -6.0620   26.3840   16.6140 N.3   133  GLY133     -0.1210
    135  CA        -5.7290   27.7850   16.4780 C.3   133  GLY133      0.1956
    136  C         -6.8210   28.7580   16.8890 C.2   133  GLY133      0.2611
    137  O         -6.5210   29.9100   17.1710 O.2   133  GLY133     -0.2717
    138  N         -8.0650   28.2810   16.9640 N.am  134  ASN134     -0.1974
    139  CA        -9.2000   29.0760   17.4390 C.3   134  ASN134      0.1688
    140  C         -9.6700   28.7100   18.8540 C.2   134  ASN134      0.2292
    141  O        -10.7260   29.1740   19.2990 O.2   134  ASN134     -0.2864
    142  CB       -10.3380   28.9900   16.4190 C.3   134  ASN134      0.1181
    143  CG       -10.0120   29.7250   15.1400 C.2   134  ASN134      0.2629
    144  OD1       -9.1880   30.6290   15.1490 O.2   134  ASN134     -0.2716
    145  ND2      -10.6230   29.3220   14.0320 N.am  134  ASN134     -0.0877
    146  N         -8.4060   29.4240   22.4460 N.3   136  LEU136     -0.1245
    147  CA        -7.4990   30.3030   23.1500 C.3   136  LEU136      0.1561
    148  C         -7.5110   29.9820   24.6330 C.2   136  LEU136      0.2260
    149  O         -8.5190   29.5280   25.1480 O.2   136  LEU136     -0.2867
    150  CB        -7.9010   31.7510   22.9370 C.3   136  LEU136      0.0270
    151  CG        -7.9530   32.2360   21.4880 C.3   136  LEU136      0.0019
    152  CD1       -8.3050   33.7250   21.4790 C.3   136  LEU136      0.0001
    153  CD2       -6.6240   31.9730   20.7610 C.3   136  LEU136      0.0001
    154  N        -12.6970   31.2030   19.7660 N.3   146  ALA146     -0.1231
    155  CA       -12.4920   32.4690   19.0820 C.3   146  ALA146      0.1694
    156  C        -12.7210   32.3500   17.5800 C.2   146  ALA146      0.2592
    157  O        -12.9690   31.2570   17.0390 O.2   146  ALA146     -0.2718
    158  CB       -11.0770   32.9800   19.3640 C.3   146  ALA146      0.0304
    159  N        -12.6230   33.5090   16.9390 N.am  147  ASP147     -0.1960
    160  CA       -12.7210   33.7140   15.4940 C.3   147  ASP147      0.1840
    161  C        -14.0530   33.3100   14.8700 C.2   147  ASP147      0.2622
    162  O        -14.1720   32.2580   14.2300 O.2   147  ASP147     -0.2715
    163  CB       -11.5310   33.1010   14.7440 C.3   147  ASP147      0.1450
    164  CG       -11.3520   33.7050   13.3390 C.2   147  ASP147      0.3671
    165  OD1      -12.1840   34.5470   12.9090 O.co2 147  ASP147     -0.2456
    166  OD2      -10.3740   33.3260   12.6690 O.co2 147  ASP147     -0.2456
    167  N        -15.0330   34.1950   15.0190 N.am  148  PHE148     -0.1974
    168  CA       -16.3550   34.0040   14.4300 C.3   148  PHE148      0.1639
    169  C        -16.4920   34.6490   13.0500 C.2   148  PHE148      0.2290
    170  O        -17.5940   34.9290   12.5980 O.2   148  PHE148     -0.2864
    171  CB       -17.4260   34.4970   15.3980 C.3   148  PHE148      0.0560
    172  CG       -17.6010   33.5920   16.5770 C.ar  148  PHE148     -0.0200
    173  CD1      -16.7460   33.6740   17.6600 C.ar  148  PHE148     -0.0042
    174  CD2      -18.5770   32.6110   16.5690 C.ar  148  PHE148     -0.0042
    175  CE1      -16.8930   32.8180   18.7450 C.ar  148  PHE148     -0.0003
    176  CE2      -18.7300   31.7570   17.6330 C.ar  148  PHE148     -0.0003
    177  CZ       -17.8930   31.8600   18.7320 C.ar  148  PHE148     -0.0000
@<TRIPOS>BOND
     1    43    41   ar
     2    43    45   ar
     3    41    40   ar
     4    35    36    1
     5    46    45    1
     6    45    44   ar
     7    40    39    1
     8    40    42   ar
     9    39    36    1
    10    36    37    1
    11    44    42   ar
    12    34    33    1
    13    37    38    2
    14    55    53   ar
    15    33    32    1
    16   170   169    2
    17   166   164   ar
    18    47    48    1
    19   165   164   ar
    20    32    31    1
    21   169   168    1
    22    51    48    1
    23    51    52    1
    24   164   163    1
    25    53    52    1
    26    53    54   ar
    27    48    49    1
    28     9    10    1
    29   145   143   am
    30    31    30    1
    31   162   161    2
    32    30    27    1
    33   168   167    1
    34   168   171    1
    35    78    76    1
    36    15    13    1
    37   163   160    1
    38   161   167   am
    39   161   160    1
    40    28    27    1
    41    28    29    2
    42    49    50    2
    43    27    26    1
    44   143   144    2
    45   143   142    1
    46    10    13    1
    47    10    11    1
    48   171   172    1
    49   160   159    1
    50    76    75    1
    51    13    14    1
    52    11    12    2
    53   142   139    1
    54   135   134    1
    55   135   136    1
    56    26    23   am
    57   174   172   ar
    58   174   176   ar
    59   172   173   ar
    60    75    77    1
    61    75    72    1
    62    24    23    2
    63   136   138   am
    64   136   137    2
    65   159   156   am
    66   138   139    1
    67     3     4    2
    68     3     2    1
    69   157   156    2
    70    71    72    1
    71    23    22    1
    72   139   140    1
    73   156   155    1
    74   176   177   ar
    75   173   175   ar
    76    72    73    1
    77     1     2    1
    78    62    61    1
    79     2     5    1
    80    74    73    2
    81    61    63    1
    82    61    60    1
    83    56    57    1
    84   177   175   ar
    85    22    25    1
    86    22    21    1
    87   140   141    2
    88     5     6    1
    89   129   130    1
    90    86    84    1
    91   155   158    1
    92   155   154    1
    93    60    57    1
    94   130   133    1
    95   130   131    1
    96   128   125    1
    97    21    18   am
    98    57    58    1
    99    84    83    1
   100     6     7    1
   101     6     8    1
   102    18    19    2
   103    18    17    1
   104   131   132    2
   105   153   151    1
   106    20    17    1
   107    58    59    2
   108   125   126    1
   109   125   124    1
   110    70    68    1
   111    17    16    1
   112   126   127    2
   113    83    85    1
   114    83    80    1
   115   152   151    1
   116   151   150    1
   117   124   122   am
   118    79    80    1
   119   146   147    1
   120    80    81    1
   121    69    68    1
   122    68    65    1
   123   150   147    1
   124   122   121    1
   125   122   123    2
   126   147   148    1
   127    67    66    2
   128    82    81    2
   129    81    87   am
   130    64    65    1
   131   121   120    1
   132    65    66    1
   133   104   102   ar
   134   104   106   ar
   135    90    89    2
   136    87    88    1
   137   148   149    2
   138   102   101   ar
   139   112   111    1
   140    89    88    1
   141    89    96   am
   142   111   108    1
   143   106   105   ar
   144   110   109    2
   145    88    91    1
   146    97    96    1
   147    97   100    1
   148    97    98    1
   149   107   108    1
   150   107    98   am
   151   101   100    1
   152   101   103   ar
   153   108   109    1
   154    92    91    1
   155    92    93    1
   156    98    99    2
   157   109   113   am
   158   105   103   ar
   159    94    93   ar
   160   116   115    2
   161    93    95   ar
   162   115   114    1
   163   113   114    1
   164   113   119    1
   165   114   117    1
   166   119   118    1
   167   117   118    1
