@<TRIPOS>MOLECULE
tmp/2j7xA00.pdb
 116 108 0 0 0
SMALL
GASTEIGER

@<TRIPOS>ATOM
      1  N         45.1900   37.6420   87.5550 N.3    43  VAL43      -0.1245
      2  CA        44.8980   38.2740   88.8430 C.3    43  VAL43       0.1561
      3  C         45.8280   39.4710   89.0260 C.2    43  VAL43       0.2260
      4  O         45.3890   40.5750   89.3480 O.2    43  VAL43      -0.2867
      5  CB        45.0150   37.2720   90.0050 C.3    43  VAL43       0.0252
      6  CG1       44.9520   38.0010   91.3900 C.3    43  VAL43       0.0019
      7  CG2       43.8890   36.1810   89.9330 C.3    43  VAL43       0.0019
      8  N         45.2860   42.6810   86.6680 N.3    46  ILE46      -0.1245
      9  CA        44.2760   43.6720   87.0190 C.3    46  ILE46       0.1561
     10  C         44.8820   44.6770   87.9770 C.2    46  ILE46       0.2260
     11  O         44.6610   45.8880   87.8400 O.2    46  ILE46      -0.2867
     12  CB        43.0060   43.0370   87.6890 C.3    46  ILE46       0.0252
     13  CG1       42.4430   41.8820   86.8750 C.3    46  ILE46       0.0019
     14  CG2       41.9180   44.0880   87.8770 C.3    46  ILE46       0.0019
     15  CD1       42.1920   42.1870   85.4960 C.3    46  ILE46       0.0001
     16  N         45.5760   48.8260   87.3530 N.3    50  LYS50      -0.1245
     17  CA        45.1340   49.8300   88.3100 C.3    50  LYS50       0.1561
     18  C         46.2190   50.8170   88.7530 C.2    50  LYS50       0.2260
     19  O         45.9040   51.9230   89.1900 O.2    50  LYS50      -0.2867
     20  CB        44.4750   49.1510   89.5110 C.3    50  LYS50       0.0271
     21  CG        43.1260   48.5150   89.1500 C.3    50  LYS50       0.0035
     22  CD        42.5680   47.6800   90.2900 C.3    50  LYS50       0.0206
     23  CE        42.2370   48.5260   91.4950 C.3    50  LYS50       0.1093
     24  NZ        41.4820   47.7260   92.5110 N.3    50  LYS50      -0.1314
     25  N         44.2530   55.1250   84.8350 N.3    55  PHE55      -0.1227
     26  CA        43.4260   53.9720   84.4690 C.3    55  PHE55       0.1736
     27  C         42.1540   53.9030   85.3060 C.2    55  PHE55       0.2595
     28  O         41.0890   53.6960   84.7720 O.2    55  PHE55      -0.2718
     29  CB        44.1870   52.6360   84.5650 C.3    55  PHE55       0.0547
     30  CG        43.3940   51.4530   84.0750 C.ar   55  PHE55      -0.0202
     31  CD1       43.3310   51.1530   82.7230 C.ar   55  PHE55      -0.0042
     32  CD2       42.6930   50.6350   84.9630 C.ar   55  PHE55      -0.0042
     33  CE1       42.6000   50.0510   82.2660 C.ar   55  PHE55      -0.0003
     34  CE2       41.9610   49.5490   84.4970 C.ar   55  PHE55      -0.0003
     35  CZ        41.9400   49.2620   83.1390 C.ar   55  PHE55      -0.0000
     36  N         42.2680   54.0900   86.6170 N.am   56  VAL56      -0.1980
     37  CA        41.1110   53.9910   87.5010 C.3    56  VAL56       0.1595
     38  C         40.1630   55.2050   87.4650 C.2    56  VAL56       0.2287
     39  O         39.0520   55.1190   88.0050 O.2    56  VAL56      -0.2864
     40  CB        41.5030   53.6320   88.9660 C.3    56  VAL56       0.0276
     41  CG1       42.2410   52.3080   88.9960 C.3    56  VAL56       0.0022
     42  CG2       42.3050   54.7390   89.6200 C.3    56  VAL56       0.0022
     43  N         34.1950   52.4650   84.6640 N.3    60  LEU60      -0.1245
     44  CA        34.4030   51.0600   84.9750 C.3    60  LEU60       0.1561
     45  C         34.1740   50.2050   83.7310 C.2    60  LEU60       0.2260
     46  O         34.8990   49.2350   83.4980 O.2    60  LEU60      -0.2867
     47  CB        33.4600   50.6330   86.0970 C.3    60  LEU60       0.0270
     48  CG        33.5410   49.1710   86.5290 C.3    60  LEU60       0.0019
     49  CD1       34.9190   48.8640   87.1290 C.3    60  LEU60       0.0001
     50  CD2       32.3910   48.8780   87.5350 C.3    60  LEU60       0.0001
     51  N         37.2770   50.3320   81.7940 N.3    63  GLN63      -0.1231
     52  CA        38.3200   49.5250   82.4230 C.3    63  GLN63       0.1698
     53  C         38.1060   48.0560   82.1030 C.2    63  GLN63       0.2592
     54  O         39.0320   47.3580   81.7050 O.2    63  GLN63      -0.2718
     55  CB        38.3640   49.7250   83.9320 C.3    63  GLN63       0.0381
     56  CG        38.7180   51.1290   84.3660 C.3    63  GLN63       0.0905
     57  CD        38.5890   51.2860   85.8660 C.2    63  GLN63       0.2608
     58  OE1       39.1250   50.4790   86.6110 O.2    63  GLN63      -0.2717
     59  NE2       37.9130   52.3400   86.3100 N.am   63  GLN63      -0.0878
     60  N         36.8830   47.5990   82.2790 N.am   64  VAL64      -0.1980
     61  CA        36.5220   46.2260   81.9290 C.3    64  VAL64       0.1595
     62  C         36.7950   45.8970   80.4410 C.2    64  VAL64       0.2287
     63  O         37.3810   44.8750   80.1470 O.2    64  VAL64      -0.2864
     64  CB        35.0250   45.9380   82.2460 C.3    64  VAL64       0.0276
     65  CG1       34.5700   44.5870   81.6380 C.3    64  VAL64       0.0022
     66  CG2       34.8180   45.9440   83.7440 C.3    64  VAL64       0.0022
     67  N         40.5960   45.6220   79.4770 N.3    67  LEU67      -0.1231
     68  CA        41.1880   44.3520   79.9250 C.3    67  LEU67       0.1693
     69  C         40.6480   43.1270   79.1860 C.2    67  LEU67       0.2591
     70  O         41.4380   42.2740   78.8290 O.2    67  LEU67      -0.2718
     71  CB        41.0690   44.1690   81.4450 C.3    67  LEU67       0.0284
     72  CG        42.0080   45.0630   82.2660 C.3    67  LEU67       0.0019
     73  CD1       41.4630   45.3060   83.6910 C.3    67  LEU67       0.0001
     74  CD2       43.4870   44.5260   82.2820 C.3    67  LEU67       0.0001
     75  N         39.3310   43.0310   78.9510 N.am   68  GLU68      -0.1979
     76  CA        38.7730   41.9680   78.1120 C.3    68  GLU68       0.1602
     77  C         39.4320   41.9400   76.7110 C.2    68  GLU68       0.2287
     78  O         39.7260   40.8820   76.1840 O.2    68  GLU68      -0.2864
     79  CB        37.2510   42.1220   77.9580 C.3    68  GLU68       0.0415
     80  CG        36.4780   41.8960   79.2520 C.3    68  GLU68       0.1163
     81  CD        34.9460   42.0120   79.0920 C.2    68  GLU68       0.3649
     82  OE1       34.4610   42.5930   78.1060 O.co2  68  GLU68      -0.2457
     83  OE2       34.2540   41.5200   79.9880 O.co2  68  GLU68      -0.2457
     84  N         37.3480   30.0790   86.5840 N.3   219  ASP219     -0.1225
     85  CA        37.5780   31.3060   87.3510 C.3   219  ASP219      0.1805
     86  C         37.9290   32.5100   86.4630 C.2   219  ASP219      0.2597
     87  O         37.2550   32.7460   85.4570 O.2   219  ASP219     -0.2718
     88  CB        38.6230   31.0650   88.4410 C.3   219  ASP219      0.1424
     89  CG        38.2170   29.9690   89.4110 C.2   219  ASP219      0.3668
     90  OD1       37.0150   29.8540   89.7460 O.co2 219  ASP219     -0.2456
     91  OD2       39.1160   29.2180   89.8320 O.co2 219  ASP219     -0.2456
     92  N         38.9800   33.2570   86.8000 N.am  220  LEU220     -0.1979
     93  CA        39.2200   34.5140   86.1020 C.3   220  LEU220      0.1596
     94  C         39.5300   34.2790   84.6280 C.2   220  LEU220      0.2287
     95  O         39.0670   35.0400   83.7710 O.2   220  LEU220     -0.2864
     96  CB        40.3160   35.3250   86.7840 C.3   220  LEU220      0.0297
     97  CG        40.5570   36.7230   86.2260 C.3   220  LEU220      0.0022
     98  CD1       39.2480   37.5020   86.0940 C.3   220  LEU220      0.0001
     99  CD2       41.5540   37.4540   87.1090 C.3   220  LEU220      0.0001
    100  N         36.3330   33.6540   82.9100 N.3   223  GLU223     -0.1231
    101  CA        35.6590   34.9450   82.7390 C.3   223  GLU223      0.1699
    102  C         36.2390   35.7180   81.5470 C.2   223  GLU223      0.2592
    103  O         35.4910   36.1900   80.6960 O.2   223  GLU223     -0.2718
    104  CB        35.7230   35.7880   84.0240 C.3   223  GLU223      0.0402
    105  CG        34.8930   37.0930   83.9840 C.3   223  GLU223      0.1161
    106  CD        34.8230   37.8050   85.3370 C.2   223  GLU223      0.3649
    107  OE1       35.6570   37.5020   86.2150 O.co2 223  GLU223     -0.2457
    108  OE2       33.9340   38.6730   85.5390 O.co2 223  GLU223     -0.2457
    109  N         37.5660   35.8160   81.4770 N.am  224  MET224     -0.1979
    110  CA        38.2370   36.5650   80.4110 C.3   224  MET224      0.1605
    111  C         38.0810   35.8940   79.0390 C.2   224  MET224      0.2287
    112  O         37.9630   36.5770   78.0120 O.2   224  MET224     -0.2864
    113  CB        39.7290   36.7520   80.7200 C.3   224  MET224      0.0413
    114  CG        40.0140   37.5130   81.9920 C.3   224  MET224      0.0598
    115  SD        39.0620   39.0300   82.1590 S.3   224  MET224     -0.1393
    116  CE        40.2000   40.2120   81.4570 C.3   224  MET224      0.0692
@<TRIPOS>BOND
     1    78    77    2
     2    77    76    1
     3    79    76    1
     4    79    80    1
     5   112   111    2
     6    82    81   ar
     7    76    75    1
     8    70    69    2
     9    75    69   am
    10   111   110    1
    11    81    80    1
    12    81    83   ar
    13    69    68    1
    14    67    68    1
    15    68    71    1
    16    63    62    2
    17   110   113    1
    18   110   109    1
    19    62    61    1
    20   103   102    2
    21   113   114    1
    22    71    72    1
    23   116   115    1
    24   109   102   am
    25   102   101    1
    26    65    64    1
    27    54    53    2
    28    51    52    1
    29    61    64    1
    30    61    60    1
    31   114   115    1
    32    53    60   am
    33    53    52    1
    34    64    66    1
    35    33    31   ar
    36    33    35   ar
    37    72    74    1
    38    72    73    1
    39    52    55    1
    40    31    30   ar
    41   101   100    1
    42   101   104    1
    43    35    34   ar
    44    46    45    2
    45    45    44    1
    46    95    94    2
    47    55    56    1
    48   105   104    1
    49   105   106    1
    50    30    29    1
    51    30    32   ar
    52    56    57    1
    53    26    29    1
    54    26    25    1
    55    26    27    1
    56    34    32   ar
    57    94    93    1
    58    43    44    1
    59    28    27    2
    60    44    47    1
    61    27    36   am
    62   106   108   ar
    63   106   107   ar
    64    87    86    2
    65    15    13    1
    66    57    59   am
    67    57    58    2
    68    98    97    1
    69    47    48    1
    70    93    96    1
    71    93    92    1
    72    97    96    1
    73    97    99    1
    74    86    92   am
    75    86    85    1
    76    48    49    1
    77    48    50    1
    78    84    85    1
    79    36    37    1
    80     8     9    1
    81    13    12    1
    82     9    12    1
    83     9    10    1
    84    85    88    1
    85    16    17    1
    86    38    37    1
    87    38    39    2
    88    37    40    1
    89     1     2    1
    90    12    14    1
    91    11    10    2
    92    17    18    1
    93    17    20    1
    94    88    89    1
    95    18    19    2
    96     2     3    1
    97     2     5    1
    98    40    41    1
    99    40    42    1
   100     3     4    2
   101    21    20    1
   102    21    22    1
   103    89    90   ar
   104    89    91   ar
   105     7     5    1
   106     5     6    1
   107    22    23    1
   108    23    24    1
