@<TRIPOS>MOLECULE
tmp/2j7yA00.pdb
 116 108 0 0 0
SMALL
GASTEIGER

@<TRIPOS>ATOM
      1  N         45.2410   37.7510   87.5680 N.3    41  VAL41      -0.1245
      2  CA        44.9240   38.4030   88.8400 C.3    41  VAL41       0.1561
      3  C         45.8760   39.5850   89.0330 C.2    41  VAL41       0.2260
      4  O         45.4350   40.6940   89.3610 O.2    41  VAL41      -0.2867
      5  CB        45.0080   37.4250   90.0320 C.3    41  VAL41       0.0252
      6  CG1       44.8800   38.1910   91.3520 C.3    41  VAL41       0.0019
      7  CG2       43.9280   36.3370   89.9330 C.3    41  VAL41       0.0019
      8  N         45.3490   42.7940   86.6260 N.3    44  ILE44      -0.1245
      9  CA        44.3630   43.7850   87.0370 C.3    44  ILE44       0.1561
     10  C         44.9590   44.7930   88.0040 C.2    44  ILE44       0.2260
     11  O         44.7360   46.0110   87.8580 O.2    44  ILE44      -0.2867
     12  CB        43.1080   43.1410   87.6890 C.3    44  ILE44       0.0252
     13  CG1       42.5350   41.9950   86.8550 C.3    44  ILE44       0.0019
     14  CG2       42.0260   44.1890   87.9170 C.3    44  ILE44       0.0019
     15  CD1       42.4990   42.2020   85.4360 C.3    44  ILE44       0.0001
     16  N         45.5770   48.9770   87.3410 N.3    48  LYS48      -0.1245
     17  CA        45.1440   49.9820   88.3100 C.3    48  LYS48       0.1561
     18  C         46.2450   50.9860   88.7270 C.2    48  LYS48       0.2260
     19  O         45.9310   52.0780   89.1980 O.2    48  LYS48      -0.2867
     20  CB        44.5260   49.3020   89.5190 C.3    48  LYS48       0.0271
     21  CG        43.1540   48.6650   89.1850 C.3    48  LYS48       0.0035
     22  CD        42.6340   47.8040   90.3230 C.3    48  LYS48       0.0206
     23  CE        42.2840   48.6340   91.5190 C.3    48  LYS48       0.1093
     24  NZ        41.6210   47.8230   92.5840 N.3    48  LYS48      -0.1314
     25  N         44.2400   55.2040   84.7260 N.3    53  PHE53      -0.1227
     26  CA        43.3810   54.0650   84.3680 C.3    53  PHE53       0.1736
     27  C         42.1300   53.9900   85.2240 C.2    53  PHE53       0.2595
     28  O         41.0220   53.8310   84.7060 O.2    53  PHE53      -0.2718
     29  CB        44.1720   52.7510   84.4660 C.3    53  PHE53       0.0547
     30  CG        43.3980   51.5550   84.0090 C.ar   53  PHE53      -0.0202
     31  CD1       43.3350   51.2190   82.6620 C.ar   53  PHE53      -0.0042
     32  CD2       42.7340   50.7460   84.9200 C.ar   53  PHE53      -0.0042
     33  CE1       42.6200   50.0910   82.2470 C.ar   53  PHE53      -0.0003
     34  CE2       42.0230   49.6340   84.4780 C.ar   53  PHE53      -0.0003
     35  CZ        41.9890   49.3250   83.1380 C.ar   53  PHE53      -0.0000
     36  N         42.2870   54.1200   86.5460 N.am   54  VAL54      -0.1980
     37  CA        41.1250   54.0530   87.4490 C.3    54  VAL54       0.1595
     38  C         40.1800   55.2640   87.3740 C.2    54  VAL54       0.2287
     39  O         39.0880   55.2270   87.9290 O.2    54  VAL54      -0.2864
     40  CB        41.5470   53.7890   88.9240 C.3    54  VAL54       0.0276
     41  CG1       42.3060   52.4630   89.0160 C.3    54  VAL54       0.0022
     42  CG2       42.3810   54.9510   89.4740 C.3    54  VAL54       0.0022
     43  N         34.1670   52.5150   84.6670 N.3    58  LEU58      -0.1301
     44  CA        34.3360   51.0890   85.0250 C.3    58  LEU58       0.1247
     45  C         34.1620   50.2340   83.7380 C.3    58  LEU58       0.2009
     46  O         35.0360   49.2810   83.4190 O.3    58  LEU58      -0.2188
     47  CB        33.3690   50.6470   86.1390 C.3    58  LEU58       0.0217
     48  CG        33.4950   49.1790   86.5580 C.3    58  LEU58       0.0015
     49  CD1       34.9850   48.9380   87.0720 C.3    58  LEU58       0.0000
     50  CD2       32.4620   48.8210   87.5380 C.3    58  LEU58       0.0000
     51  N         37.2700   50.3480   81.7290 N.3    61  GLN61      -0.1231
     52  CA        38.3270   49.5660   82.3600 C.3    61  GLN61       0.1698
     53  C         38.1360   48.0830   82.0450 C.2    61  GLN61       0.2592
     54  O         39.0730   47.3860   81.6550 O.2    61  GLN61      -0.2718
     55  CB        38.3650   49.7860   83.8730 C.3    61  GLN61       0.0381
     56  CG        38.7320   51.2020   84.2960 C.3    61  GLN61       0.0905
     57  CD        38.6480   51.3640   85.7930 C.2    61  GLN61       0.2608
     58  OE1       39.1630   50.5380   86.5480 O.2    61  GLN61      -0.2717
     59  NE2       37.9620   52.3960   86.2390 N.am   61  GLN61      -0.0878
     60  N         36.9060   47.6200   82.1850 N.am   62  VAL62      -0.1980
     61  CA        36.5910   46.2380   81.8790 C.3    62  VAL62       0.1595
     62  C         36.8660   45.9030   80.4000 C.2    62  VAL62       0.2287
     63  O         37.5100   44.8980   80.0940 O.2    62  VAL62      -0.2864
     64  CB        35.1070   45.9090   82.2130 C.3    62  VAL62       0.0276
     65  CG1       34.6890   44.5550   81.6240 C.3    62  VAL62       0.0022
     66  CG2       34.8860   45.9270   83.7260 C.3    62  VAL62       0.0022
     67  N         40.6380   45.7010   79.4260 N.3    65  LEU65      -0.1231
     68  CA        41.2850   44.4670   79.9040 C.3    65  LEU65       0.1693
     69  C         40.7860   43.2280   79.1450 C.2    65  LEU65       0.2591
     70  O         41.5800   42.3680   78.7660 O.2    65  LEU65      -0.2718
     71  CB        41.1270   44.3170   81.4290 C.3    65  LEU65       0.0284
     72  CG        42.0860   45.1820   82.2570 C.3    65  LEU65       0.0019
     73  CD1       41.5650   45.4620   83.6740 C.3    65  LEU65       0.0001
     74  CD2       43.5290   44.5650   82.2560 C.3    65  LEU65       0.0001
     75  N         39.4800   43.1630   78.8970 N.am   66  GLU66      -0.1979
     76  CA        38.8940   42.1090   78.0440 C.3    66  GLU66       0.1602
     77  C         39.5560   42.0310   76.6580 C.2    66  GLU66       0.2287
     78  O         39.8340   40.9420   76.1490 O.2    66  GLU66      -0.2864
     79  CB        37.3930   42.3250   77.9050 C.3    66  GLU66       0.0415
     80  CG        36.6110   41.9490   79.1460 C.3    66  GLU66       0.1163
     81  CD        35.0940   42.1240   78.9940 C.2    66  GLU66       0.3649
     82  OE1       34.6340   42.7620   78.0260 O.co2  66  GLU66      -0.2457
     83  OE2       34.3720   41.6020   79.8540 O.co2  66  GLU66      -0.2457
     84  N         37.4270   30.2520   86.7590 N.3   217  ASP217     -0.1225
     85  CA        37.6980   31.5020   87.4710 C.3   217  ASP217      0.1805
     86  C         37.9930   32.6650   86.5200 C.2   217  ASP217      0.2597
     87  O         37.2670   32.8610   85.5470 O.2   217  ASP217     -0.2718
     88  CB        38.8040   31.2900   88.5110 C.3   217  ASP217      0.1424
     89  CG        38.4870   30.1610   89.4830 C.2   217  ASP217      0.3668
     90  OD1       37.3300   30.0740   89.9490 O.co2 217  ASP217     -0.2456
     91  OD2       39.3980   29.3560   89.7750 O.co2 217  ASP217     -0.2456
     92  N         39.0580   33.4220   86.7750 N.am  218  LEU218     -0.1979
     93  CA        39.2980   34.6480   86.0280 C.3   218  LEU218      0.1596
     94  C         39.6170   34.3770   84.5490 C.2   218  LEU218      0.2287
     95  O         39.1430   35.0920   83.6690 O.2   218  LEU218     -0.2864
     96  CB        40.4000   35.4760   86.7070 C.3   218  LEU218      0.0297
     97  CG        40.6470   36.8900   86.1990 C.3   218  LEU218      0.0022
     98  CD1       39.3390   37.6890   86.0880 C.3   218  LEU218      0.0001
     99  CD2       41.6470   37.6010   87.1040 C.3   218  LEU218      0.0001
    100  N         36.3900   33.7620   82.8040 N.3   221  GLU221     -0.1231
    101  CA        35.7260   35.0600   82.5900 C.3   221  GLU221      0.1699
    102  C         36.3040   35.8490   81.4020 C.2   221  GLU221      0.2592
    103  O         35.5480   36.3850   80.5870 O.2   221  GLU221     -0.2718
    104  CB        35.7430   35.8860   83.8880 C.3   221  GLU221      0.0402
    105  CG        34.9620   37.2050   83.8330 C.3   221  GLU221      0.1161
    106  CD        34.8240   37.8680   85.2000 C.2   221  GLU221      0.3649
    107  OE1       35.6130   37.5450   86.1090 O.co2 221  GLU221     -0.2457
    108  OE2       33.9110   38.7070   85.3810 O.co2 221  GLU221     -0.2457
    109  N         37.6310   35.8910   81.2740 N.am  222  MET222     -0.1979
    110  CA        38.2790   36.6200   80.1730 C.3   222  MET222      0.1605
    111  C         38.1400   35.8820   78.8410 C.2   222  MET222      0.2287
    112  O         38.0150   36.5080   77.7880 O.2   222  MET222     -0.2864
    113  CB        39.7670   36.8650   80.4660 C.3   222  MET222      0.0413
    114  CG        40.0260   37.5620   81.7690 C.3   222  MET222      0.0598
    115  SD        39.0440   39.0630   81.9780 S.3   222  MET222     -0.1393
    116  CE        40.1780   40.2770   81.3330 C.3   222  MET222      0.0692
@<TRIPOS>BOND
     1    78    77    2
     2    77    76    1
     3   112   111    2
     4    79    76    1
     5    79    80    1
     6    82    81   ar
     7    76    75    1
     8    70    69    2
     9   111   110    1
    10    75    69   am
    11    81    80    1
    12    81    83   ar
    13    69    68    1
    14    67    68    1
    15    68    71    1
    16    63    62    2
    17   110   113    1
    18   110   109    1
    19    62    61    1
    20   113   114    1
    21   103   102    2
    22   109   102   am
    23   116   115    1
    24   102   101    1
    25    71    72    1
    26    65    64    1
    27    54    53    2
    28    51    52    1
    29   114   115    1
    30    61    60    1
    31    61    64    1
    32    53    60   am
    33    53    52    1
    34    64    66    1
    35    33    31   ar
    36    33    35   ar
    37    74    72    1
    38    72    73    1
    39    52    55    1
    40   101   100    1
    41   101   104    1
    42    31    30   ar
    43    35    34   ar
    44    46    45    1
    45    95    94    2
    46    45    44    1
    47   105   104    1
    48   105   106    1
    49    55    56    1
    50    30    29    1
    51    30    32   ar
    52    56    57    1
    53    26    29    1
    54    26    25    1
    55    26    27    1
    56    34    32   ar
    57    94    93    1
    58    43    44    1
    59    28    27    2
    60    44    47    1
    61   106   108   ar
    62   106   107   ar
    63    27    36   am
    64    15    13    1
    65    87    86    2
    66    57    59   am
    67    57    58    2
    68    93    96    1
    69    93    92    1
    70    98    97    1
    71    47    48    1
    72    97    96    1
    73    97    99    1
    74    86    92   am
    75    86    85    1
    76    36    37    1
    77    48    49    1
    78    48    50    1
    79     8     9    1
    80    84    85    1
    81    13    12    1
    82     9    12    1
    83     9    10    1
    84    16    17    1
    85    38    37    1
    86    38    39    2
    87    37    40    1
    88    85    88    1
    89     1     2    1
    90    12    14    1
    91    11    10    2
    92    17    18    1
    93    17    20    1
    94    88    89    1
    95    18    19    2
    96     2     3    1
    97     2     5    1
    98    40    41    1
    99    40    42    1
   100     3     4    2
   101    21    20    1
   102    21    22    1
   103    89    91   ar
   104    89    90   ar
   105     7     5    1
   106     5     6    1
   107    22    23    1
   108    23    24    1
