@<TRIPOS>MOLECULE
tmp/2j83B00.pdb
 170 166 0 0 0
SMALL
GASTEIGER

@<TRIPOS>ATOM
      1  N         32.3460   35.3730  106.7910 N.3    88  THR88      -0.1218
      2  CA        32.9640   36.6750  106.9600 C.3    88  THR88       0.1862
      3  C         32.1320   37.5920  107.8620 C.2    88  THR88       0.2287
      4  O         32.5430   38.7160  108.1310 O.2    88  THR88      -0.2866
      5  CB        33.1910   37.3500  105.5880 C.3    88  THR88       0.1770
      6  OG1       31.9920   37.2530  104.8110 O.3    88  THR88      -0.2211
      7  CG2       34.3050   36.6480  104.8320 C.3    88  THR88       0.0375
      8  N         32.2330   33.2070  102.1760 N.3   119  SER119     -0.1217
      9  CA        31.7890   34.5930  102.0790 C.3   119  SER119      0.1889
     10  C         30.2920   34.6680  102.3920 C.2   119  SER119      0.2288
     11  O         29.6200   33.6380  102.5330 O.2   119  SER119     -0.2866
     12  CB        32.0530   35.1510  100.6800 C.3   119  SER119      0.2089
     13  OG        31.1310   34.6210   99.7400 O.3   119  SER119     -0.2183
     14  N         30.7200   31.6570   98.8470 N.3   123  GLN123     -0.1231
     15  CA        31.9690   31.2900   98.1880 C.3   123  GLN123      0.1698
     16  C         32.9350   30.7200   99.2200 C.2   123  GLN123      0.2592
     17  O         33.0780   31.2720  100.3140 O.2   123  GLN123     -0.2718
     18  CB        32.6180   32.5080   97.5280 C.3   123  GLN123      0.0381
     19  CG        31.7530   33.2320   96.5030 C.3   123  GLN123      0.0905
     20  CD        32.1170   34.7080   96.3770 C.2   123  GLN123      0.2608
     21  OE1       32.0650   35.4630   97.3540 O.2   123  GLN123     -0.2717
     22  NE2       32.4740   35.1270   95.1680 N.am  123  GLN123     -0.0878
     23  N         33.6130   29.6330   98.8690 N.am  124  ASP124     -0.1960
     24  CA        34.6040   29.0570   99.7660 C.3   124  ASP124      0.1840
     25  C         35.8570   29.9340   99.8210 C.2   124  ASP124      0.2622
     26  O         36.3820   30.3600   98.7890 O.2   124  ASP124     -0.2715
     27  CB        34.9440   27.6220   99.3650 C.3   124  ASP124      0.1450
     28  CG        35.1630   26.7260  100.5690 C.2   124  ASP124      0.3671
     29  OD1       34.2900   25.8770  100.8700 O.co2 124  ASP124     -0.2456
     30  OD2       36.1970   26.8890  101.2360 O.co2 124  ASP124     -0.2456
     31  N         36.3040   30.2390  101.0340 N.am  125  ILE125     -0.1963
     32  CA        37.5070   31.0410  101.2120 C.3   125  ILE125      0.1727
     33  C         38.4540   30.3770  102.2040 C.2   125  ILE125      0.2616
     34  O         38.0310   29.5790  103.0490 O.2   125  ILE125     -0.2715
     35  CB        37.2010   32.5150  101.6330 C.3   125  ILE125      0.0290
     36  CG1       36.5650   32.5900  103.0280 C.3   125  ILE125      0.0022
     37  CG2       36.3330   33.2240  100.5770 C.3   125  ILE125      0.0023
     38  CD1       36.4730   34.0310  103.5820 C.3   125  ILE125      0.0001
     39  N         39.7300   30.7250  102.0870 N.am  126  LEU126     -0.1963
     40  CA        40.7810   30.1980  102.9490 C.3   126  LEU126      0.1728
     41  C         41.0420   31.0790  104.1680 C.2   126  LEU126      0.2617
     42  O         41.5360   30.5990  105.1780 O.2   126  LEU126     -0.2715
     43  CB        42.0810   30.0260  102.1570 C.3   126  LEU126      0.0311
     44  CG        42.0970   29.1150  100.9240 C.3   126  LEU126      0.0022
     45  CD1       43.4520   29.2170  100.2800 C.3   126  LEU126      0.0001
     46  CD2       41.7780   27.6510  101.2670 C.3   126  LEU126      0.0001
     47  N         40.7240   32.3680  104.0700 N.am  127  GLY127     -0.1940
     48  CA        40.9480   33.2720  105.1930 C.3   127  GLY127      0.2014
     49  C         40.4470   34.6730  104.9450 C.2   127  GLY127      0.2639
     50  O         40.1560   35.0290  103.8070 O.2   127  GLY127     -0.2714
     51  N         40.3460   35.4660  106.0160 N.am  128  TYR128     -0.1959
     52  CA        40.0230   36.8950  105.9040 C.3   128  TYR128      0.1771
     53  C         40.5310   37.7020  107.1100 C.2   128  TYR128      0.2619
     54  O         40.7060   37.1670  108.2150 O.2   128  TYR128     -0.2715
     55  CB        38.5170   37.1130  105.6810 C.3   128  TYR128      0.0574
     56  CG        37.6460   36.9380  106.9080 C.ar  128  TYR128     -0.0198
     57  CD1       37.2080   38.0430  107.6330 C.ar  128  TYR128     -0.0009
     58  CD2       37.2310   35.6720  107.3240 C.ar  128  TYR128     -0.0009
     59  CE1       36.3990   37.8990  108.7560 C.ar  128  TYR128      0.0417
     60  CE2       36.4180   35.5120  108.4460 C.ar  128  TYR128      0.0417
     61  CZ        36.0100   36.6320  109.1580 C.ar  128  TYR128      0.1957
     62  OH        35.2100   36.4930  110.2710 O.3   128  TYR128     -0.2866
     63  N         40.7560   38.9890  106.8800 N.am  129  ALA129     -0.1977
     64  CA        41.3420   39.8800  107.8690 C.3   129  ALA129      0.1597
     65  C         40.3970   41.0390  108.2080 C.2   129  ALA129      0.2287
     66  O         39.4460   41.3110  107.4730 O.2   129  ALA129     -0.2864
     67  CB        42.6640   40.4110  107.3390 C.3   129  ALA129      0.0319
     68  N         47.9970   25.0090   99.3950 N.3   158  PHE158     -0.1241
     69  CA        47.9990   25.9860  100.4760 C.3   158  PHE158      0.1605
     70  C         48.6000   25.4290  101.7770 C.2   158  PHE158      0.2264
     71  O         48.0510   25.5780  102.8790 O.2   158  PHE158     -0.2867
     72  CB        46.6110   26.6250  100.6970 C.3   158  PHE158      0.0534
     73  CG        45.4490   25.7200  100.3840 C.ar  158  PHE158     -0.0203
     74  CD1       44.8250   25.7730   99.1390 C.ar  158  PHE158     -0.0042
     75  CD2       44.9560   24.8390  101.3410 C.ar  158  PHE158     -0.0042
     76  CE1       43.7420   24.9450   98.8440 C.ar  158  PHE158     -0.0003
     77  CE2       43.8730   24.0050  101.0600 C.ar  158  PHE158     -0.0003
     78  CZ        43.2610   24.0590   99.8110 C.ar  158  PHE158     -0.0000
     79  N         48.6780   31.8210  103.4680 N.3   163  THR163     -0.1218
     80  CA        47.3720   32.4300  103.7200 C.3   163  THR163      0.1862
     81  C         47.4710   33.4020  104.8990 C.2   163  THR163      0.2287
     82  O         47.0260   34.5550  104.7990 O.2   163  THR163     -0.2866
     83  CB        46.2510   31.3900  103.9610 C.3   163  THR163      0.1770
     84  OG1       46.1830   30.4780  102.8520 O.3   163  THR163     -0.2211
     85  CG2       44.8880   32.0920  104.1350 C.3   163  THR163      0.0375
     86  N         49.4660   36.5890  103.9730 N.3   166  HIS166     -0.1226
     87  CA        48.5590   37.4420  103.2010 C.3   166  HIS166      0.1752
     88  C         47.5880   38.1860  104.1380 C.2   166  HIS166      0.2595
     89  O         47.4810   39.4130  104.0670 O.2   166  HIS166     -0.2718
     90  CB        47.8020   36.5900  102.1590 C.3   166  HIS166      0.0759
     91  CG        46.7600   37.3340  101.3760 C.ar  166  HIS166      0.0818
     92  ND1       47.0030   37.8690  100.1270 N.ar  166  HIS166     -0.2268
     93  CD2       45.4630   37.6110  101.6550 C.ar  166  HIS166      0.1154
     94  CE1       45.9050   38.4560   99.6790 C.ar  166  HIS166      0.1986
     95  NE2       44.9520   38.3010  100.5820 N.ar  166  HIS166     -0.2212
     96  N         46.9210   37.4460  105.0280 N.am  167  GLU167     -0.1979
     97  CA        45.9330   38.0410  105.9380 C.3   167  GLU167      0.1602
     98  C         46.5400   39.0410  106.9100 C.2   167  GLU167      0.2287
     99  O         45.9460   40.0940  107.1760 O.2   167  GLU167     -0.2864
    100  CB        45.1620   36.9700  106.7240 C.3   167  GLU167      0.0415
    101  CG        44.4130   35.9040  105.9020 C.3   167  GLU167      0.1163
    102  CD        43.5230   36.4520  104.7900 C.2   167  GLU167      0.3649
    103  OE1       43.1130   37.6300  104.8330 O.co2 167  GLU167     -0.2457
    104  OE2       43.2310   35.6780  103.8610 O.co2 167  GLU167     -0.2457
    105  N         47.0820   42.3420  105.3840 N.3   170  HIS170     -0.1241
    106  CA        45.8600   43.1630  105.4910 C.3   170  HIS170      0.1621
    107  C         45.7390   43.7820  106.8970 C.2   170  HIS170      0.2264
    108  O         45.3890   44.9560  107.0390 O.2   170  HIS170     -0.2867
    109  CB        44.5780   42.3320  105.2500 C.3   170  HIS170      0.0745
    110  CG        44.3230   41.9490  103.8180 C.ar  170  HIS170      0.0817
    111  ND1       44.4910   42.8170  102.7590 N.ar  170  HIS170     -0.2268
    112  CD2       43.8530   40.7940  103.2840 C.ar  170  HIS170      0.1154
    113  CE1       44.1610   42.2070  101.6340 C.ar  170  HIS170      0.1986
    114  NE2       43.7660   40.9790  101.9240 N.ar  170  HIS170     -0.2212
    115  N         45.0920   44.4830   98.4550 N.3   176  HIS176     -0.1241
    116  CA        45.3280   43.6330   97.2940 C.3   176  HIS176      0.1621
    117  C         46.0800   44.4150   96.2160 C.2   176  HIS176      0.2264
    118  O         45.7030   45.5410   95.8830 O.2   176  HIS176     -0.2867
    119  CB        44.0060   43.0830   96.7470 C.3   176  HIS176      0.0745
    120  CG        43.3730   42.0460   97.6290 C.ar  176  HIS176      0.0817
    121  ND1       42.0110   41.8530   97.6980 N.ar  176  HIS176     -0.2268
    122  CD2       43.9220   41.1540   98.4890 C.ar  176  HIS176      0.1154
    123  CE1       41.7450   40.8810   98.5550 C.ar  176  HIS176      0.1986
    124  NE2       42.8880   40.4400   99.0500 N.ar  176  HIS176     -0.2212
    125  N         46.2760   33.9850   89.7120 N.3   205  PHE205     -0.1241
    126  CA        46.0110   32.7390   90.4180 C.3   205  PHE205      0.1605
    127  C         47.0160   31.6650   89.9980 C.2   205  PHE205      0.2264
    128  O         47.6740   31.7960   88.9660 O.2   205  PHE205     -0.2867
    129  CB        44.5910   32.2530   90.1060 C.3   205  PHE205      0.0534
    130  CG        43.5020   33.1620   90.6280 C.ar  205  PHE205     -0.0203
    131  CD1       42.9500   34.1500   89.8130 C.ar  205  PHE205     -0.0042
    132  CD2       43.0300   33.0250   91.9360 C.ar  205  PHE205     -0.0042
    133  CE1       41.9380   34.9910   90.2900 C.ar  205  PHE205     -0.0003
    134  CE2       42.0180   33.8530   92.4260 C.ar  205  PHE205     -0.0003
    135  CZ        41.4710   34.8420   91.6020 C.ar  205  PHE205     -0.0000
    136  N         49.0430   39.3840   96.2420 N.3   229  ASP229     -0.1225
    137  CA        48.3340   38.8380   95.0870 C.3   229  ASP229      0.1805
    138  C         47.5690   37.5590   95.5080 C.2   229  ASP229      0.2598
    139  O         47.4350   37.2770   96.7040 O.2   229  ASP229     -0.2718
    140  CB        49.2980   38.5750   93.9160 C.3   229  ASP229      0.1424
    141  CG        48.6150   38.6660   92.5480 C.2   229  ASP229      0.3668
    142  OD1       49.3130   38.9710   91.5540 O.co2 229  ASP229     -0.2456
    143  OD2       47.3900   38.4410   92.4550 O.co2 229  ASP229     -0.2456
    144  N         47.0510   36.8040   94.5400 N.am  230  TYR230     -0.1962
    145  CA        46.2190   35.6320   94.8410 C.3   230  TYR230      0.1771
    146  C         46.8280   34.3110   94.3530 C.2   230  TYR230      0.2619
    147  O         46.1080   33.3290   94.1630 O.2   230  TYR230     -0.2715
    148  CB        44.8180   35.7870   94.2190 C.3   230  TYR230      0.0574
    149  CG        43.7490   36.4240   95.0960 C.ar  230  TYR230     -0.0198
    150  CD1       43.9920   36.7380   96.4330 C.ar  230  TYR230     -0.0009
    151  CD2       42.4780   36.6710   94.5800 C.ar  230  TYR230     -0.0009
    152  CE1       43.0000   37.3110   97.2320 C.ar  230  TYR230      0.0417
    153  CE2       41.4720   37.2380   95.3710 C.ar  230  TYR230      0.0417
    154  CZ        41.7430   37.5560   96.6920 C.ar  230  TYR230      0.1957
    155  OH        40.7550   38.1080   97.4660 O.3   230  TYR230     -0.2866
    156  N         48.1390   34.2940   94.1240 N.am  231  VAL231     -0.1977
    157  CA        48.8140   33.0890   93.6110 C.3   231  VAL231      0.1596
    158  C         48.9680   31.9920   94.6830 C.2   231  VAL231      0.2287
    159  O         48.8140   32.2640   95.8730 O.2   231  VAL231     -0.2864
    160  CB        50.1980   33.4240   92.9810 C.3   231  VAL231      0.0276
    161  CG1       50.0270   34.3680   91.7800 C.3   231  VAL231      0.0022
    162  CG2       51.1560   34.0150   94.0280 C.3   231  VAL231      0.0022
    163  N         54.0950   32.9480   96.1310 N.3   235  MET235     -0.1245
    164  CA        54.1700   34.2460   96.8070 C.3   235  MET235      0.1570
    165  C         55.2680   34.2540   97.8600 C.2   235  MET235      0.2261
    166  O         55.2490   33.4490   98.7940 O.2   235  MET235     -0.2867
    167  CB        52.8150   34.6940   97.3850 C.3   235  MET235      0.0387
    168  CG        51.9790   33.6250   98.0700 C.3   235  MET235      0.0595
    169  SD        50.5370   34.2860   98.9530 S.3   235  MET235     -0.1393
    170  CE        49.5880   35.0700   97.6450 C.3   235  MET235      0.0692
@<TRIPOS>BOND
     1   128   127    2
     2   125   126    1
     3   131   133   ar
     4   131   130   ar
     5   127   126    1
     6   129   126    1
     7   129   130    1
     8   133   135   ar
     9   130   132   ar
    10   142   141   ar
    11   135   134   ar
    12   161   160    1
    13   132   134   ar
    14   143   141   ar
    15   141   140    1
    16   160   157    1
    17   160   162    1
    18   157   156    1
    19   157   158    1
    20   140   137    1
    21   156   146   am
    22   147   146    2
    23   148   145    1
    24   148   149    1
    25   146   145    1
    26   144   145    1
    27   144   138   am
    28   151   149   ar
    29   151   153   ar
    30   158   159    2
    31   137   138    1
    32   137   136    1
    33   149   150   ar
    34    22    20   am
    35   153   154   ar
    36   138   139    2
    37   118   117    2
    38   163   164    1
    39   117   116    1
    40    20    19    1
    41    20    21    2
    42   150   152   ar
    43    19    18    1
    44   154   152   ar
    45   154   155    1
    46   119   116    1
    47   119   120    1
    48   164   167    1
    49   164   165    1
    50   116   115    1
    51   167   168    1
    52    18    15    1
    53   120   121   ar
    54   120   122   ar
    55   170   169    1
    56   121   123   ar
    57   165   166    2
    58   168   169    1
    59    15    14    1
    60    15    16    1
    61   122   124   ar
    62   123   124   ar
    63    26    25    2
    64    76    74   ar
    65    76    78   ar
    66    23    16   am
    67    23    24    1
    68    74    73   ar
    69    16    17    2
    70    27    24    1
    71    27    28    1
    72    68    69    1
    73    94    92   ar
    74    94    95   ar
    75    13    12    1
    76    24    25    1
    77    78    77   ar
    78    25    31   am
    79    92    91   ar
    80    45    44    1
    81    73    72    1
    82    73    75   ar
    83    69    72    1
    84    69    70    1
    85    28    29   ar
    86    28    30   ar
    87    37    35    1
    88    95    93   ar
    89    12     9    1
    90    44    46    1
    91    44    43    1
    92    31    32    1
    93    77    75   ar
    94    32    35    1
    95    32    33    1
    96    91    93   ar
    97    91    90    1
    98    35    36    1
    99   113   114   ar
   100   113   111   ar
   101    70    71    2
   102   114   112   ar
   103     9     8    1
   104     9    10    1
   105    39    33   am
   106    39    40    1
   107    43    40    1
   108    90    87    1
   109    33    34    2
   110    10    11    2
   111   111   110   ar
   112    84    83    1
   113    40    41    1
   114    36    38    1
   115    87    86    1
   116    87    88    1
   117   112   110   ar
   118    79    80    1
   119    80    83    1
   120    80    81    1
   121    50    49    2
   122   110   109    1
   123   104   102   ar
   124    83    85    1
   125    89    88    2
   126    47    41   am
   127    47    48    1
   128    88    96   am
   129    41    42    2
   130   102   103   ar
   131   102   101    1
   132    82    81    2
   133     6     5    1
   134     7     5    1
   135    49    48    1
   136    49    51   am
   137    96    97    1
   138   109   106    1
   139   105   106    1
   140   106   107    1
   141     5     2    1
   142    55    52    1
   143    55    56    1
   144   101   100    1
   145    52    51    1
   146    52    53    1
   147    97   100    1
   148    97    98    1
   149     1     2    1
   150    63    53   am
   151    63    64    1
   152   107   108    2
   153    56    58   ar
   154    56    57   ar
   155    98    99    2
   156     2     3    1
   157    53    54    2
   158    58    60   ar
   159    67    64    1
   160    66    65    2
   161    57    59   ar
   162     3     4    2
   163    64    65    1
   164    60    61   ar
   165    59    61   ar
   166    61    62    1
