@<TRIPOS>MOLECULE
tmp/2j87D00.pdb
 198 193 0 0 0
SMALL
GASTEIGER

@<TRIPOS>ATOM
      1  N          4.1300    1.0830   10.4970 N.3    10  MET10      -0.1230
      2  CA         3.7180    1.5540   11.8030 C.3    10  MET10       0.1702
      3  C          3.3550    3.0300   11.6870 C.2    10  MET10       0.2592
      4  O          3.6640    3.6810   10.6750 O.2    10  MET10      -0.2718
      5  CB         4.8080    1.3110   12.8560 C.3    10  MET10       0.0401
      6  CG         5.5140   -0.0460   12.7380 C.3    10  MET10       0.0596
      7  SD         6.4170   -0.5620   14.2040 S.3    10  MET10      -0.1393
      8  CE         6.6880    0.9830   15.0430 C.3    10  MET10       0.0692
      9  N          2.6790    3.5410   12.7140 N.am   11  PHE11      -0.1962
     10  CA         2.2330    4.9380   12.7610 C.3    11  PHE11       0.1771
     11  C          1.2600    5.2550   11.6360 C.2    11  PHE11       0.2620
     12  O          0.8350    6.4010   11.4600 O.2    11  PHE11      -0.2715
     13  CB         3.4130    5.9100   12.7460 C.3    11  PHE11       0.0574
     14  CG         4.6120    5.4200   13.5030 C.ar   11  PHE11      -0.0200
     15  CD1        4.5240    5.0720   14.8540 C.ar   11  PHE11      -0.0042
     16  CD2        5.8390    5.3120   12.8580 C.ar   11  PHE11      -0.0042
     17  CE1        5.6420    4.6260   15.5430 C.ar   11  PHE11      -0.0003
     18  CE2        6.9720    4.8750   13.5340 C.ar   11  PHE11      -0.0003
     19  CZ         6.8750    4.5310   14.8790 C.ar   11  PHE11      -0.0000
     20  N          0.9120    4.2130   10.8900 N.am   12  SER12      -0.1936
     21  CA        -0.1190    4.2710    9.8770 C.3    12  SER12       0.2055
     22  C         -1.4500    4.6810   10.4670 C.2    12  SER12       0.2644
     23  O         -2.2520    5.2890    9.7820 O.2    12  SER12      -0.2714
     24  CB        -0.2920    2.9000    9.2430 C.3    12  SER12       0.2130
     25  OG         0.8750    2.5200    8.5560 O.3    12  SER12      -0.2179
     26  N         -1.6750    4.3490   11.7390 N.am   13  GLY13      -0.1939
     27  CA        -2.9750    4.5100   12.3900 C.3    13  GLY13       0.2014
     28  C         -3.7610    3.2070   12.3320 C.2    13  GLY13       0.2639
     29  O         -4.9880    3.2080   12.3300 O.2    13  GLY13      -0.2714
     30  N         -3.0410    2.0900   12.2900 N.am   14  LYS14      -0.1963
     31  CA        -3.6370    0.7810   12.1390 C.3    14  LYS14       0.1728
     32  C         -4.5500    0.4210   13.2980 C.2    14  LYS14       0.2617
     33  O         -5.7610    0.3930   13.1340 O.2    14  LYS14      -0.2715
     34  CB        -2.5530   -0.2790   11.9600 C.3    14  LYS14       0.0311
     35  CG        -1.6930   -0.1120   10.7230 C.3    14  LYS14       0.0038
     36  CD        -1.0950   -1.4320   10.2910 C.3    14  LYS14       0.0206
     37  CE        -0.1960   -2.0440   11.3690 C.3    14  LYS14       0.1093
     38  NZ         1.0200   -1.2310   11.5860 N.3    14  LYS14      -0.1314
     39  N         -3.9740    0.1450   14.4600 N.am   15  SER15      -0.1936
     40  CA        -4.7530   -0.2970   15.6010 C.3    15  SER15       0.2055
     41  C         -5.9920    0.5570   15.7920 C.2    15  SER15       0.2643
     42  O         -7.0430    0.0580   16.1610 O.2    15  SER15      -0.2714
     43  CB        -3.9070   -0.2320   16.8480 C.3    15  SER15       0.2130
     44  OG        -3.1240    0.9290   16.7980 O.3    15  SER15      -0.2179
     45  N         -5.8570    1.8470   15.5160 N.am   16  THR16      -0.1950
     46  CA        -6.9340    2.8230   15.7180 C.3    16  THR16       0.1897
     47  C         -8.1320    2.6180   14.7960 C.2    16  THR16       0.2313
     48  O         -9.2770    2.7030   15.2380 O.2    16  THR16      -0.2863
     49  CB        -6.4300    4.2470   15.5100 C.3    16  THR16       0.1794
     50  OG1       -5.1210    4.3600   16.0620 O.3    16  THR16      -0.2208
     51  CG2       -7.3340    5.2490   16.1730 C.3    16  THR16       0.0378
     52  N          3.8490    0.3350   25.8550 N.3    43  TYR43      -0.1241
     53  CA         3.9890    1.3470   24.8290 C.3    43  TYR43       0.1605
     54  C          4.1510    2.6130   25.6370 C.2    43  TYR43       0.2264
     55  O          5.1270    2.7420   26.3760 O.2    43  TYR43      -0.2867
     56  CB         2.7380    1.3620   23.9160 C.3    43  TYR43       0.0534
     57  CG         2.1990   -0.0440   23.6000 C.ar   43  TYR43      -0.0201
     58  CD1        2.8920   -0.9050   22.7230 C.ar   43  TYR43      -0.0009
     59  CD2        1.0190   -0.5240   24.2100 C.ar   43  TYR43      -0.0009
     60  CE1        2.4300   -2.1940   22.4580 C.ar   43  TYR43       0.0417
     61  CE2        0.5500   -1.8200   23.9490 C.ar   43  TYR43       0.0417
     62  CZ         1.2670   -2.6430   23.0740 C.ar   43  TYR43       0.1957
     63  OH         0.8240   -3.9160   22.8110 O.3    43  TYR43      -0.2866
     64  N         -5.5160   -6.5080   16.7010 N.3    77  ASP77      -0.1225
     65  CA        -4.3700   -5.6870   16.3700 C.3    77  ASP77       0.1805
     66  C         -3.1250   -6.5560   16.4450 C.2    77  ASP77       0.2597
     67  O         -2.9850   -7.3960   17.3300 O.2    77  ASP77      -0.2718
     68  CB        -4.2600   -4.4200   17.2340 C.3    77  ASP77       0.1424
     69  CG        -3.1850   -3.4080   16.7060 C.2    77  ASP77       0.3668
     70  OD1       -3.0840   -3.1580   15.4860 O.co2  77  ASP77      -0.2456
     71  OD2       -2.4260   -2.8300   17.5160 O.co2  77  ASP77      -0.2456
     72  N         -2.2540   -6.3530   15.4630 N.am   78  GLU78      -0.1979
     73  CA        -0.9930   -7.0580   15.3210 C.3    78  GLU78       0.1602
     74  C         -1.2190   -8.5300   15.0210 C.2    78  GLU78       0.2287
     75  O         -0.7390   -9.4050   15.7270 O.2    78  GLU78      -0.2864
     76  CB        -0.1140   -6.8610   16.5550 C.3    78  GLU78       0.0415
     77  CG         0.3960   -5.4360   16.7340 C.3    78  GLU78       0.1163
     78  CD         1.0700   -5.2100   18.0930 C.2    78  GLU78       0.3649
     79  OE1        1.0020   -6.1160   18.9600 O.co2  78  GLU78      -0.2457
     80  OE2        1.6700   -4.1240   18.3020 O.co2  78  GLU78      -0.2457
     81  N          1.6260  -11.6100   14.4080 N.3    81  PHE81      -0.1241
     82  CA         2.2360  -12.2420   15.5630 C.3    81  PHE81       0.1605
     83  C          1.6030  -13.5750   15.9400 C.2    81  PHE81       0.2264
     84  O          2.2040  -14.3800   16.6450 O.2    81  PHE81      -0.2867
     85  CB         2.1940  -11.2900   16.7550 C.3    81  PHE81       0.0534
     86  CG         3.1790  -10.1530   16.6630 C.ar   81  PHE81      -0.0203
     87  CD1        4.3320  -10.2680   15.8790 C.ar   81  PHE81      -0.0042
     88  CD2        2.9790   -8.9800   17.3950 C.ar   81  PHE81      -0.0042
     89  CE1        5.2480   -9.2100   15.8030 C.ar   81  PHE81      -0.0003
     90  CE2        3.8850   -7.9290   17.3310 C.ar   81  PHE81      -0.0003
     91  CZ         5.0170   -8.0410   16.5350 C.ar   81  PHE81      -0.0000
     92  N          0.7720   -5.8530   10.2000 N.3   104  LEU104     -0.1245
     93  CA         1.7730   -5.3390    9.2700 C.3   104  LEU104      0.1561
     94  C          2.0820   -6.3400    8.1570 C.2   104  LEU104      0.2260
     95  O          2.3330   -7.5340    8.4030 O.2   104  LEU104     -0.2867
     96  CB         3.0600   -4.9870    9.9950 C.3   104  LEU104      0.0270
     97  CG         2.9370   -4.1850   11.2750 C.3   104  LEU104      0.0019
     98  CD1        2.7080   -5.1060   12.4930 C.3   104  LEU104      0.0001
     99  CD2        4.1980   -3.3560   11.4380 C.3   104  LEU104      0.0001
    100  N          4.7350   -6.0720    6.0220 N.3   106  GLY106     -0.1210
    101  CA         6.1750   -6.3290    5.9340 C.3   106  GLY106      0.1956
    102  C          6.9890   -5.9310    7.1400 C.2   106  GLY106      0.2613
    103  O          6.5570   -5.1130    7.9410 O.2   106  GLY106     -0.2717
    104  N          8.1840   -6.5010    7.2430 N.am  107  THR107     -0.1938
    105  CA         9.0680   -6.2650    8.3710 C.3   107  THR107      0.2028
    106  C          9.9120   -5.0130    8.1580 C.2   107  THR107      0.2642
    107  O          9.7460   -4.3170    7.1600 O.2   107  THR107     -0.2714
    108  CB         9.9540   -7.5020    8.6210 C.3   107  THR107      0.1808
    109  OG1       10.7880   -7.7610    7.4830 O.3   107  THR107     -0.2208
    110  CG2        9.0820   -8.7180    8.8700 C.3   107  THR107      0.0379
    111  N         10.8020   -4.7140    9.1010 N.am  108  PHE108     -0.1973
    112  CA        11.7820   -3.6330    8.9350 C.3   108  PHE108      0.1639
    113  C         12.6920   -3.8990    7.7480 C.2   108  PHE108      0.2290
    114  O         13.4090   -3.0170    7.3130 O.2   108  PHE108     -0.2864
    115  CB        12.6350   -3.4830   10.1910 C.3   108  PHE108      0.0560
    116  CG        13.6850   -4.5650   10.3610 C.ar  108  PHE108     -0.0200
    117  CD1       13.3190   -5.8610   10.6880 C.ar  108  PHE108     -0.0042
    118  CD2       15.0390   -4.2750   10.2160 C.ar  108  PHE108     -0.0042
    119  CE1       14.2680   -6.8470   10.8590 C.ar  108  PHE108     -0.0003
    120  CE2       16.0020   -5.2570   10.3870 C.ar  108  PHE108     -0.0003
    121  CZ        15.6150   -6.5450   10.7130 C.ar  108  PHE108     -0.0000
    122  N          5.6050  -10.3560    6.6840 N.3   113  PHE113     -0.1241
    123  CA         5.5550  -10.8930    8.0330 C.3   113  PHE113      0.1605
    124  C          5.0870  -12.3490    8.0860 C.2   113  PHE113      0.2264
    125  O          4.4700  -12.8500    7.1340 O.2   113  PHE113     -0.2867
    126  CB         4.6550  -10.0260    8.8910 C.3   113  PHE113      0.0534
    127  CG         5.3830   -9.2720    9.9590 C.ar  113  PHE113     -0.0203
    128  CD1        6.0530   -9.9570   10.9720 C.ar  113  PHE113     -0.0042
    129  CD2        5.3790   -7.8860    9.9820 C.ar  113  PHE113     -0.0042
    130  CE1        6.7210   -9.2640   11.9900 C.ar  113  PHE113     -0.0003
    131  CE2        6.0450   -7.1900   10.9900 C.ar  113  PHE113     -0.0003
    132  CZ         6.7170   -7.8790   11.9950 C.ar  113  PHE113     -0.0000
    133  N          8.0850    0.6890    7.1890 N.3   143  SER143     -0.1217
    134  CA         8.6040    0.7910    8.5430 C.3   143  SER143      0.1889
    135  C         10.1140    0.5380    8.5470 C.2   143  SER143      0.2288
    136  O         10.5940   -0.3390    7.8300 O.2   143  SER143     -0.2866
    137  CB         7.8700   -0.2220    9.4170 C.3   143  SER143      0.2089
    138  OG         7.4160   -1.3150    8.6240 O.3   143  SER143     -0.2183
    139  N         13.6190    0.1420   11.2350 N.3   145  ARG145     -0.1245
    140  CA        14.2070    0.0450   12.5800 C.3   145  ARG145      0.1563
    141  C         15.4140    0.9600   12.7120 C.2   145  ARG145      0.2260
    142  O         16.2920    0.9710   11.8480 O.2   145  ARG145     -0.2867
    143  CB        14.6200   -1.3930   12.8890 C.3   145  ARG145      0.0307
    144  CG        15.0540   -1.6560   14.3420 C.3   145  ARG145      0.0489
    145  CD        15.3370   -3.1400   14.5690 C.3   145  ARG145      0.2205
    146  NE        14.1710   -3.9820   14.2750 N.pl3 145  ARG145     -0.0865
    147  CZ        14.1840   -5.3120   14.2470 C.cat 145  ARG145      0.5346
    148  NH1       15.3020   -5.9900   14.5050 N.pl3 145  ARG145      0.1354
    149  NH2       13.0710   -5.9720   13.9680 N.pl3 145  ARG145      0.1354
    150  N         13.6640  -10.7510   13.7390 N.3   152  ILE152     -0.1231
    151  CA        12.4350  -10.2300   13.1710 C.3   152  ILE152      0.1692
    152  C         11.5640   -9.5410   14.2120 C.2   152  ILE152      0.2592
    153  O         11.3610   -8.3350   14.1500 O.2   152  ILE152     -0.2718
    154  CB        11.6190  -11.3580   12.4720 C.3   152  ILE152      0.0266
    155  CG1       12.4830  -12.1560   11.4720 C.3   152  ILE152      0.0019
    156  CG2       10.3500  -10.8100   11.8260 C.3   152  ILE152      0.0020
    157  CD1       12.9300  -11.4200   10.1950 C.3   152  ILE152      0.0001
    158  N         11.0680  -10.3050   15.1740 N.am  153  GLU153     -0.1966
    159  CA        10.0850   -9.7860   16.1030 C.3   153  GLU153      0.1733
    160  C         10.7200   -9.1210   17.3300 C.2   153  GLU153      0.2616
    161  O         11.3100   -9.7960   18.1880 O.2   153  GLU153     -0.2715
    162  CB         9.1130  -10.8970   16.4980 C.3   153  GLU153      0.0429
    163  CG         8.1110  -10.5160   17.5950 C.3   153  GLU153      0.1163
    164  CD         7.3250  -11.7250   18.1410 C.2   153  GLU153      0.3649
    165  OE1        6.6240  -12.3820   17.3280 O.co2 153  GLU153     -0.2457
    166  OE2        7.4080  -12.0100   19.3740 O.co2 153  GLU153     -0.2457
    167  N         10.5880   -7.7930   17.3850 N.am  154  ILE154     -0.1963
    168  CA        11.0420   -6.9540   18.5020 C.3   154  ILE154      0.1727
    169  C         10.1310   -5.7220   18.5940 C.2   154  ILE154      0.2616
    170  O         10.1090   -4.9090   17.6890 O.2   154  ILE154     -0.2715
    171  CB        12.5910   -6.6120   18.4040 C.3   154  ILE154      0.0290
    172  CG1       12.9700   -5.3290   19.1440 C.3   154  ILE154      0.0022
    173  CG2       13.0320   -6.4740   16.9990 C.3   154  ILE154      0.0023
    174  CD1       13.0600   -5.4840   20.6630 C.3   154  ILE154      0.0001
    175  N          9.3690   -5.6190   19.6850 N.am  155  ILE155     -0.1963
    176  CA         8.3170   -4.5980   19.8610 C.3   155  ILE155      0.1730
    177  C          8.8600   -3.2120   20.2170 C.2   155  ILE155      0.2655
    178  O          9.8590   -3.1110   20.9250 O.2   155  ILE155     -0.2711
    179  CB         7.3220   -5.0230   20.9610 C.3   155  ILE155      0.0290
    180  CG1        6.6450   -6.3400   20.5840 C.3   155  ILE155      0.0022
    181  CG2        6.2900   -3.9300   21.2360 C.3   155  ILE155      0.0023
    182  CD1        7.3250   -7.5600   21.1450 C.3   155  ILE155      0.0001
    183  N          8.1920   -2.1590   19.7350 N.am  156  GLY156     -0.1730
    184  CA         8.5830   -0.7800   20.0340 C.2   156  GLY156      0.1340
    185  C          7.6470    0.3070   19.5340 C.2   156  GLY156      0.2521
    186  O          6.7640    0.0550   18.7310 O.2   156  GLY156     -0.2816
    187  N         11.4560    2.7460   15.8890 N.3   161  TYR161     -0.1241
    188  CA        11.1960    2.6130   14.4780 C.3   161  TYR161      0.1605
    189  C         10.8180    3.9580   13.8740 C.2   161  TYR161      0.2264
    190  O         10.6380    4.9400   14.5970 O.2   161  TYR161     -0.2867
    191  CB        10.0580    1.6240   14.2690 C.3   161  TYR161      0.0534
    192  CG        10.3170    0.1930   14.6960 C.ar  161  TYR161     -0.0201
    193  CD1       10.8070   -0.7390   13.7850 C.ar  161  TYR161     -0.0009
    194  CD2       10.0290   -0.2400   15.9890 C.ar  161  TYR161     -0.0009
    195  CE1       11.0280   -2.0710   14.1370 C.ar  161  TYR161      0.0417
    196  CE2       10.2490   -1.5720   16.3640 C.ar  161  TYR161      0.0417
    197  CZ        10.7480   -2.4870   15.4180 C.ar  161  TYR161      0.1957
    198  OH        10.9900   -3.8150   15.7310 O.3   161  TYR161     -0.2866
@<TRIPOS>BOND
     1   101   100    1
     2   101   102    1
     3   122   123    1
     4   125   124    2
     5   102   104   am
     6   102   103    2
     7   107   106    2
     8   133   134    1
     9   104   105    1
    10   114   113    2
    11   109   108    1
    12   113   112    1
    13   136   135    2
    14   123   124    1
    15   123   126    1
    16    94    95    2
    17    94    93    1
    18   106   105    1
    19   106   111   am
    20   105   108    1
    21   134   135    1
    22   134   137    1
    23    25    24    1
    24   108   110    1
    25   138   137    1
    26   126   127    1
    27   112   111    1
    28   112   115    1
    29    24    21    1
    30    93    96    1
    31    93    92    1
    32    23    22    2
    33    21    22    1
    34    21    20    1
    35   127   129   ar
    36   127   128   ar
    37   129   131   ar
    38    96    97    1
    39   115   116    1
    40   157   155    1
    41   118   116   ar
    42   118   120   ar
    43    36    35    1
    44    36    37    1
    45   116   117   ar
    46   120   121   ar
    47    22    26   am
    48     1     2    1
    49     4     3    2
    50   117   119   ar
    51   121   119   ar
    52    35    34    1
    53    20    11   am
    54   128   130   ar
    55   131   132   ar
    56   139   140    1
    57    97    99    1
    58    97    98    1
    59    37    38    1
    60    12    11    2
    61   155   154    1
    62    11    10    1
    63     3     2    1
    64     3     9   am
    65    26    27    1
    66     2     5    1
    67   156   154    1
    68   142   141    2
    69    34    31    1
    70   130   132   ar
    71    31    30    1
    72    31    32    1
    73    30    28   am
    74    29    28    2
    75    28    27    1
    76   154   151    1
    77   140   141    1
    78   140   143    1
    79     9    10    1
    80     6     5    1
    81     6     7    1
    82    13    10    1
    83    13    14    1
    84    16    14   ar
    85    16    18   ar
    86   143   144    1
    87    33    32    2
    88   151   150    1
    89   151   152    1
    90    32    39   am
    91    14    15   ar
    92    18    19   ar
    93   193   195   ar
    94   193   192   ar
    95   189   188    1
    96   189   190    2
    97   149   147    1
    98   195   197   ar
    99   153   152    2
   100     7     8    1
   101   152   158   am
   102   147   146    2
   103   147   148    1
   104   191   188    1
   105   191   192    1
   106   146   145    1
   107   144   145    1
   108    81    82    1
   109    39    40    1
   110   188   187    1
   111   192   194   ar
   112    47    48    2
   113    47    46    1
   114    15    17   ar
   115    19    17   ar
   116    74    73    1
   117    74    75    2
   118   158   159    1
   119    73    72    1
   120    73    76    1
   121   197   198    1
   122   197   196   ar
   123    72    66   am
   124    70    69   ar
   125    49    46    1
   126    49    50    1
   127    49    51    1
   128    45    46    1
   129    45    41   am
   130    82    83    1
   131    82    85    1
   132    40    41    1
   133    40    43    1
   134    41    42    2
   135    89    87   ar
   136    89    91   ar
   137    87    86   ar
   138    83    84    2
   139   194   196   ar
   140   159   162    1
   141   159   160    1
   142    65    66    1
   143    65    64    1
   144    65    68    1
   145    66    67    2
   146   162   163    1
   147    91    90   ar
   148    76    77    1
   149    86    85    1
   150    86    88   ar
   151    69    68    1
   152    69    71   ar
   153    77    78    1
   154    44    43    1
   155   173   171    1
   156   165   164   ar
   157   160   167   am
   158   160   161    2
   159    90    88   ar
   160   167   168    1
   161   163   164    1
   162   170   169    2
   163    78    80   ar
   164    78    79   ar
   165   164   166   ar
   166   171   168    1
   167   171   172    1
   168   168   169    1
   169   169   175   am
   170   186   185    2
   171   172   174    1
   172   185   184    1
   173   175   176    1
   174   183   184    2
   175   183   177    1
   176   176   177    1
   177   176   179    1
   178   177   178    2
   179   180   179    1
   180   180   182    1
   181   179   181    1
   182    60    58   ar
   183    60    62   ar
   184    58    57   ar
   185    63    62    1
   186    62    61   ar
   187    57    56    1
   188    57    59   ar
   189    56    53    1
   190    61    59   ar
   191    53    54    1
   192    53    52    1
   193    54    55    2
