@<TRIPOS>MOLECULE
tmp/2j8cB12.pdb
 159 152 0 0 0
SMALL
GASTEIGER

@<TRIPOS>ATOM
      1  N         28.8320   83.1480   35.3050 N.3   182  THR182     -0.1218
      2  CA        29.5020   81.8430   35.0280 C.3   182  THR182      0.1862
      3  C         28.9880   81.2580   33.7180 C.2   182  THR182      0.2287
      4  O         29.7430   80.6420   32.9340 O.2   182  THR182     -0.2866
      5  CB        29.2800   80.8440   36.2020 C.3   182  THR182      0.1770
      6  OG1       29.8050   81.4350   37.4010 O.3   182  THR182     -0.2211
      7  CG2       30.0240   79.5110   35.9660 C.3   182  THR182      0.0375
      8  N         30.6470   83.1130   30.8860 N.3   185  LEU185     -0.1231
      9  CA        32.0350   82.6060   30.8390 C.3   185  LEU185      0.1693
     10  C         32.0590   81.2380   30.1150 C.2   185  LEU185      0.2591
     11  O         32.8430   81.0480   29.1810 O.2   185  LEU185     -0.2718
     12  CB        32.5910   82.4790   32.2810 C.3   185  LEU185      0.0284
     13  CG        33.8370   81.6200   32.5130 C.3   185  LEU185      0.0019
     14  CD1       34.9680   82.1080   31.6990 C.3   185  LEU185      0.0001
     15  CD2       34.1990   81.6130   34.0050 C.3   185  LEU185      0.0001
     16  N         31.1880   80.3140   30.5120 N.am  186  ALA186     -0.1980
     17  CA        31.1340   78.9660   29.9190 C.3   186  ALA186      0.1597
     18  C         30.7430   79.0050   28.4520 C.2   186  ALA186      0.2287
     19  O         31.2370   78.1780   27.6300 O.2   186  ALA186     -0.2864
     20  CB        30.1520   78.1020   30.6790 C.3   186  ALA186      0.0319
     21  N         33.6490   80.1900   26.4660 N.3   189  LEU189     -0.1231
     22  CA        34.7040   79.1350   26.4060 C.3   189  LEU189      0.1693
     23  C         34.2690   77.9710   25.5140 C.2   189  LEU189      0.2592
     24  O         35.1070   77.4040   24.7710 O.2   189  LEU189     -0.2718
     25  CB        35.0430   78.6130   27.7890 C.3   189  LEU189      0.0284
     26  CG        35.7870   79.6000   28.7120 C.3   189  LEU189      0.0019
     27  CD1       35.8370   78.9710   30.1080 C.3   189  LEU189      0.0001
     28  CD2       37.1710   79.9040   28.1650 C.3   189  LEU189      0.0001
     29  N         32.9900   77.6050   25.5890 N.am  190  HIS190     -0.1976
     30  CA        32.4720   76.5170   24.7450 C.3   190  HIS190      0.1656
     31  C         32.5530   76.8840   23.2680 C.2   190  HIS190      0.2291
     32  O         33.0380   76.0700   22.4600 O.2   190  HIS190     -0.2864
     33  CB        31.0170   76.0980   25.0830 C.3   190  HIS190      0.0771
     34  CG        30.4680   74.9990   24.1800 C.ar  190  HIS190      0.0820
     35  ND1       31.0970   73.7790   24.0440 N.ar  190  HIS190     -0.2267
     36  CD2       29.3550   74.9330   23.3900 C.ar  190  HIS190      0.1154
     37  CE1       30.3990   73.0130   23.1990 C.ar  190  HIS190      0.1986
     38  NE2       29.3360   73.6870   22.7700 N.ar  190  HIS190     -0.2212
     39  N         36.1330   76.9620   22.1290 N.3   193  LEU193     -0.1231
     40  CA        36.8620   75.6800   22.1270 C.3   193  LEU193      0.1693
     41  C         36.5040   74.9150   20.8610 C.2   193  LEU193      0.2591
     42  O         37.3680   74.4370   20.1280 O.2   193  LEU193     -0.2718
     43  CB        36.5230   74.8450   23.3700 C.3   193  LEU193      0.0284
     44  CG        37.3570   73.5710   23.5270 C.3   193  LEU193      0.0019
     45  CD1       38.8780   73.8920   23.5030 C.3   193  LEU193      0.0001
     46  CD2       36.9910   72.9060   24.8350 C.3   193  LEU193      0.0001
     47  N         35.2160   74.8410   20.5800 N.am  194  VAL194     -0.1980
     48  CA        34.7550   74.0980   19.3900 C.3   194  VAL194      0.1595
     49  C         35.3000   74.7880   18.1390 C.2   194  VAL194      0.2287
     50  O         35.8100   74.1010   17.2430 O.2   194  VAL194     -0.2864
     51  CB        33.2180   73.9910   19.3480 C.3   194  VAL194      0.0276
     52  CG1       32.7500   73.4590   17.9480 C.3   194  VAL194      0.0022
     53  CG2       32.7260   73.1040   20.4980 C.3   194  VAL194      0.0022
     54  N         40.4490   69.1350   22.2900 N.3   212  GLU212     -0.1231
     55  CA        39.6290   70.0020   23.1500 C.3   212  GLU212      0.1699
     56  C         39.8240   69.6670   24.6390 C.2   212  GLU212      0.2592
     57  O         40.0820   70.5740   25.4460 O.2   212  GLU212     -0.2718
     58  CB        38.1500   69.8570   22.7930 C.3   212  GLU212      0.0402
     59  CG        37.7680   70.3970   21.4060 C.3   212  GLU212      0.1161
     60  CD        36.2400   70.2690   21.1810 C.2   212  GLU212      0.3649
     61  OE1       35.7300   69.1660   20.9600 O.co2 212  GLU212     -0.2457
     62  OE2       35.5330   71.2830   21.2940 O.co2 212  GLU212     -0.2457
     63  N         39.7110   68.3910   24.9980 N.am  213  ASP213     -0.1974
     64  CA        40.0450   67.9300   26.3570 C.3   213  ASP213      0.1709
     65  C         41.4810   68.2790   26.7330 C.2   213  ASP213      0.2293
     66  O         41.7310   68.7800   27.8260 O.2   213  ASP213     -0.2864
     67  CB        39.8320   66.4180   26.5320 C.3   213  ASP213      0.1436
     68  CG        38.3490   66.0240   26.6000 C.2   213  ASP213      0.3671
     69  OD1       37.5160   66.8690   27.0010 O.co2 213  ASP213     -0.2456
     70  OD2       38.0170   64.8540   26.2630 O.co2 213  ASP213     -0.2456
     71  N         42.0230   72.0570   27.5630 N.3   216  PHE216     -0.1241
     72  CA        41.5170   72.4590   28.8860 C.3   216  PHE216      0.1605
     73  C         42.2900   71.8620   30.0550 C.2   216  PHE216      0.2264
     74  O         42.5130   72.5220   31.0760 O.2   216  PHE216     -0.2867
     75  CB        39.9940   72.2800   29.0170 C.3   216  PHE216      0.0534
     76  CG        39.2920   73.5870   28.9470 C.ar  216  PHE216     -0.0203
     77  CD1       38.9430   74.1290   27.7250 C.ar  216  PHE216     -0.0042
     78  CD2       39.1280   74.3400   30.1000 C.ar  216  PHE216     -0.0042
     79  CE1       38.3720   75.3960   27.6410 C.ar  216  PHE216     -0.0003
     80  CE2       38.5590   75.6060   30.0440 C.ar  216  PHE216     -0.0003
     81  CZ        38.1910   76.1420   28.7980 C.ar  216  PHE216     -0.0000
     82  N         43.7350   74.4390   32.6460 N.3   220  VAL220     -0.1245
     83  CA        43.2570   74.5030   34.0340 C.3   220  VAL220      0.1561
     84  C         43.3360   73.2010   34.7960 C.2   220  VAL220      0.2260
     85  O         42.9700   73.1330   35.9710 O.2   220  VAL220     -0.2867
     86  CB        41.8000   75.1030   34.1250 C.3   220  VAL220      0.0252
     87  CG1       41.7280   76.4380   33.4290 C.3   220  VAL220      0.0019
     88  CG2       40.7750   74.1500   33.5380 C.3   220  VAL220      0.0019
     89  N         41.5760   70.4540   34.1200 N.3   222  TYR222     -0.1227
     90  CA        40.3490   69.7020   34.0610 C.3   222  TYR222      0.1736
     91  C         39.5950   70.0450   32.7830 C.2   222  TYR222      0.2596
     92  O         39.5720   71.2040   32.3630 O.2   222  TYR222     -0.2718
     93  CB        39.4590   69.9680   35.2820 C.3   222  TYR222      0.0548
     94  CG        38.1580   69.2180   35.2300 C.ar  222  TYR222     -0.0200
     95  CD1       38.1260   67.8400   35.4120 C.ar  222  TYR222     -0.0009
     96  CD2       36.9490   69.8780   34.9530 C.ar  222  TYR222     -0.0009
     97  CE1       36.9410   67.1410   35.3530 C.ar  222  TYR222      0.0417
     98  CE2       35.7340   69.1710   34.8930 C.ar  222  TYR222      0.0417
     99  CZ        35.7430   67.8160   35.0830 C.ar  222  TYR222      0.1957
    100  OH        34.5880   67.0920   35.0360 O.3   222  TYR222     -0.2866
    101  N         39.0420   69.0210   32.1530 N.am  223  SER223     -0.1938
    102  CA        38.0870   69.2020   31.0660 C.3   223  SER223      0.2055
    103  C         36.7650   68.5410   31.4250 C.2   223  SER223      0.2643
    104  O         36.7130   67.3610   31.7700 O.2   223  SER223     -0.2714
    105  CB        38.6130   68.6030   29.7560 C.3   223  SER223      0.2130
    106  OG        37.6460   68.8200   28.7130 O.3   223  SER223     -0.2179
    107  N         35.6710   69.2920   31.3280 N.am  224  ILE224     -0.1963
    108  CA        34.3730   68.7100   31.6620 C.3   224  ILE224      0.1727
    109  C         33.9000   67.7320   30.5770 C.2   224  ILE224      0.2617
    110  O         33.1090   66.8530   30.8510 O.2   224  ILE224     -0.2715
    111  CB        33.2930   69.7990   31.9620 C.3   224  ILE224      0.0290
    112  CG1       32.1220   69.1600   32.7260 C.3   224  ILE224      0.0022
    113  CG2       32.8640   70.5690   30.6770 C.3   224  ILE224      0.0023
    114  CD1       31.1100   70.1980   33.3430 C.3   224  ILE224      0.0001
    115  N         34.3780   67.8990   29.3420 N.am  225  GLY225     -0.1940
    116  CA        34.0680   66.9100   28.3040 C.3   225  GLY225      0.2014
    117  C         32.9340   67.4100   27.4160 C.2   225  GLY225      0.2639
    118  O         32.2670   68.4030   27.7500 O.2   225  GLY225     -0.2714
    119  N         32.7080   66.7430   26.2860 N.am  226  THR226     -0.1950
    120  CA        31.7740   67.3110   25.2960 C.3   226  THR226      0.1897
    121  C         30.3250   67.1460   25.6800 C.2   226  THR226      0.2313
    122  O         29.5160   68.0010   25.3440 O.2   226  THR226     -0.2863
    123  CB        31.9800   66.7320   23.8740 C.3   226  THR226      0.1794
    124  OG1       31.7560   65.3270   23.9240 O.3   226  THR226     -0.2208
    125  CG2       33.4010   67.0530   23.3640 C.3   226  THR226      0.0378
    126  N         29.7950   69.7410   28.9460 N.3   229  ILE229     -0.1231
    127  CA        29.7340   71.1790   28.7330 C.3   229  ILE229      0.1692
    128  C         28.3000   71.5840   28.3360 C.2   229  ILE229      0.2592
    129  O         27.8630   72.6720   28.6750 O.2   229  ILE229     -0.2718
    130  CB        30.7950   71.7290   27.7280 C.3   229  ILE229      0.0266
    131  CG1       30.7100   73.2660   27.6280 C.3   229  ILE229      0.0019
    132  CG2       30.6310   71.1200   26.3160 C.3   229  ILE229      0.0020
    133  CD1       31.0490   73.9830   28.9620 C.3   229  ILE229      0.0001
    134  N         27.5850   70.7120   27.6300 N.am  230  HIS230     -0.1976
    135  CA        26.2150   71.0490   27.2310 C.3   230  HIS230      0.1656
    136  C         25.2810   70.8590   28.4610 C.2   230  HIS230      0.2291
    137  O         24.3570   71.6440   28.6760 O.2   230  HIS230     -0.2864
    138  CB        25.7830   70.3100   25.9180 C.3   230  HIS230      0.0771
    139  CG        26.6080   70.6920   24.6970 C.ar  230  HIS230      0.0820
    140  ND1       27.7380   69.9930   24.3210 N.ar  230  HIS230     -0.2267
    141  CD2       26.4950   71.7190   23.8010 C.ar  230  HIS230      0.1154
    142  CE1       28.2630   70.5580   23.2380 C.ar  230  HIS230      0.1986
    143  NE2       27.5440   71.6270   22.8870 N.ar  230  HIS230     -0.2212
    144  N         26.3000   71.4060   31.4620 N.3   232  LEU232     -0.1245
    145  CA        26.6830   72.5430   32.2970 C.3   232  LEU232      0.1561
    146  C         26.0250   73.8340   31.8230 C.2   232  LEU232      0.2260
    147  O         25.4930   74.5940   32.6420 O.2   232  LEU232     -0.2867
    148  CB        28.1950   72.7320   32.3120 C.3   232  LEU232      0.0270
    149  CG        28.7480   73.8710   33.2010 C.3   232  LEU232      0.0019
    150  CD1       28.4070   73.6060   34.6630 C.3   232  LEU232      0.0001
    151  CD2       30.2400   74.0270   32.9990 C.3   232  LEU232      0.0001
    152  N         23.6870   75.9570   34.2350 N.3   236  LEU236     -0.1245
    153  CA        24.0560   77.2980   34.6800 C.3   236  LEU236      0.1561
    154  C         22.9750   78.2750   34.3080 C.2   236  LEU236      0.2260
    155  O         22.5760   79.1200   35.1320 O.2   236  LEU236     -0.2867
    156  CB        25.3980   77.7490   34.0810 C.3   236  LEU236      0.0270
    157  CG        26.6480   76.9660   34.5510 C.3   236  LEU236      0.0019
    158  CD1       27.7710   77.4220   33.6550 C.3   236  LEU236      0.0001
    159  CD2       26.9860   77.2600   36.0340 C.3   236  LEU236      0.0001
@<TRIPOS>BOND
     1    50    49    2
     2    52    51    1
     3    49    48    1
     4    51    48    1
     5    51    53    1
     6    48    47    1
     7    42    41    2
     8    47    41   am
     9    41    40    1
    10    61    60   ar
    11    60    62   ar
    12    60    59    1
    13    59    58    1
    14    40    39    1
    15    40    43    1
    16    54    55    1
    17    32    31    2
    18    38    37   ar
    19    38    36   ar
    20    58    55    1
    21   143   142   ar
    22   143   141   ar
    23    55    56    1
    24    37    35   ar
    25   142   140   ar
    26    31    30    1
    27   125   123    1
    28    43    44    1
    29    36    34   ar
    30    45    44    1
    31    44    46    1
    32   141   139   ar
    33   123   124    1
    34   123   120    1
    35    35    34   ar
    36    34    33    1
    37   140   139   ar
    38    56    63   am
    39    56    57    2
    40   139   138    1
    41    30    33    1
    42    30    29    1
    43    24    23    2
    44    63    64    1
    45   120   121    1
    46   120   119    1
    47   122   121    2
    48    23    29   am
    49    23    22    1
    50   138   135    1
    51    70    68   ar
    52   119   117   am
    53   132   130    1
    54    64    67    1
    55    64    65    1
    56    22    21    1
    57    22    25    1
    58    67    68    1
    59    68    69   ar
    60    65    66    2
    61   135   134    1
    62   135   136    1
    63   117   118    2
    64   117   116    1
    65    71    72    1
    66   131   130    1
    67   131   133    1
    68    19    18    2
    69   134   128   am
    70    79    77   ar
    71    79    81   ar
    72    77    76   ar
    73   130   127    1
    74    25    26    1
    75    28    26    1
    76   116   115    1
    77   128   129    2
    78   128   127    1
    79    18    17    1
    80   136   137    2
    81    26    27    1
    82   106   105    1
    83   127   126    1
    84    81    80   ar
    85    72    75    1
    86    72    73    1
    87    76    75    1
    88    76    78   ar
    89    11    10    2
    90   115   109   am
    91   105   102    1
    92    17    16    1
    93    17    20    1
    94    80    78   ar
    95    73    74    2
    96    10    16   am
    97    10     9    1
    98   109   110    2
    99   109   108    1
   100   113   111    1
   101     9     8    1
   102     9    12    1
   103   102   103    1
   104   102   101    1
   105   107   103   am
   106   107   108    1
   107   103   104    2
   108   144   145    1
   109   108   111    1
   110    14    13    1
   111   146   145    1
   112   146   147    2
   113   111   112    1
   114   101    91   am
   115    12    13    1
   116   145   148    1
   117   148   149    1
   118    92    91    2
   119    13    15    1
   120    82    83    1
   121   112   114    1
   122    91    90    1
   123     4     3    2
   124   151   149    1
   125   149   150    1
   126    87    86    1
   127    88    86    1
   128   158   157    1
   129     3     2    1
   130    83    86    1
   131    83    84    1
   132    90    89    1
   133    90    93    1
   134   156   157    1
   135   156   153    1
   136   152   153    1
   137   154   153    1
   138   154   155    2
   139   157   159    1
   140    84    85    2
   141    98    96   ar
   142    98    99   ar
   143    96    94   ar
   144     2     1    1
   145     2     5    1
   146   100    99    1
   147    99    97   ar
   148    94    93    1
   149    94    95   ar
   150    97    95   ar
   151     7     5    1
   152     5     6    1
