@<TRIPOS>MOLECULE
tmp/2j8cC01.pdb
 109 107 0 0 0
SMALL
GASTEIGER

@<TRIPOS>ATOM
      1  N         56.2250   68.1080   26.6160 N.3    26  LEU26      -0.1231
      2  CA        55.6630   67.1540   27.5610 C.3    26  LEU26       0.1693
      3  C         56.3430   67.2070   28.9250 C.2    26  LEU26       0.2591
      4  O         55.7610   66.7760   29.9300 O.2    26  LEU26      -0.2718
      5  CB        55.7070   65.7220   27.0130 C.3    26  LEU26       0.0284
      6  CG        54.9770   65.3750   25.7120 C.3    26  LEU26       0.0019
      7  CD1       55.0760   63.8730   25.4690 C.3    26  LEU26       0.0001
      8  CD2       53.5060   65.7800   25.7870 C.3    26  LEU26       0.0001
      9  N         57.5640   67.7380   28.9570 N.am   27  ALA27      -0.1980
     10  CA        58.3210   67.8350   30.1960 C.3    27  ALA27       0.1597
     11  C         57.6240   68.7800   31.1750 C.2    27  ALA27       0.2287
     12  O         57.8660   68.7210   32.3820 O.2    27  ALA27      -0.2864
     13  CB        59.7340   68.3150   29.9180 C.3    27  ALA27       0.0319
     14  N         54.1600   68.9550   31.5470 N.3    29  ARG29      -0.1231
     15  CA        52.8980   68.4270   32.0640 C.3    29  ARG29       0.1694
     16  C         53.1010   67.6930   33.3700 C.2    29  ARG29       0.2593
     17  O         54.0520   66.9270   33.5170 O.2    29  ARG29      -0.2718
     18  CB        52.2180   67.4730   31.0750 C.3    29  ARG29       0.0321
     19  CG        51.6900   68.1570   29.8460 C.3    29  ARG29       0.0489
     20  CD        50.7330   67.2500   29.0630 C.3    29  ARG29       0.2205
     21  NE        50.1470   68.0240   27.9750 N.pl3  29  ARG29      -0.0865
     22  CZ        49.8820   67.5480   26.7640 C.cat  29  ARG29       0.5346
     23  NH1       49.3370   68.3570   25.8630 N.pl3  29  ARG29       0.1354
     24  NH2       50.1750   66.2720   26.4490 N.pl3  29  ARG29       0.1354
     25  N         52.1910   67.9110   34.3100 N.am   30  SER30      -0.1938
     26  CA        52.1440   67.1420   35.5390 C.3    30  SER30       0.2055
     27  C         51.7240   65.6980   35.2480 C.2    30  SER30       0.2644
     28  O         51.4360   65.3370   34.1090 O.2    30  SER30      -0.2714
     29  CB        51.1360   67.7790   36.5060 C.3    30  SER30       0.2130
     30  OG        49.8080   67.4920   36.0990 O.3    30  SER30      -0.2179
     31  N         51.6840   64.8670   36.2840 N.am   31  GLY31      -0.1939
     32  CA        51.0090   63.5800   36.1680 C.3    31  GLY31       0.2014
     33  C         49.5240   63.8100   36.3650 C.2    31  GLY31       0.2639
     34  O         49.0950   64.9160   36.7350 O.2    31  GLY31      -0.2714
     35  N         48.7240   62.7760   36.1400 N.am   32  VAL32      -0.1963
     36  CA        47.2900   62.9130   36.3740 C.3    32  VAL32       0.1727
     37  C         47.0050   63.0520   37.8520 C.2    32  VAL32       0.2617
     38  O         47.8160   62.6420   38.6980 O.2    32  VAL32      -0.2715
     39  CB        46.4690   61.7460   35.8110 C.3    32  VAL32       0.0290
     40  CG1       46.7200   61.6260   34.3300 C.3    32  VAL32       0.0023
     41  CG2       46.7880   60.4410   36.5440 C.3    32  VAL32       0.0023
     42  N         45.8640   63.6630   38.1570 N.am   33  GLY33      -0.1941
     43  CA        45.3820   63.7720   39.5260 C.3    33  GLY33       0.1998
     44  C         44.4280   62.6330   39.7690 C.2    33  GLY33       0.2480
     45  O         44.3930   61.6700   38.9860 O.2    33  GLY33      -0.2729
     46  N         43.6320   62.7290   40.8380 N.am   34  PRO34      -0.2726
     47  CA        42.6990   61.6550   41.1650 C.3    34  PRO34       0.1402
     48  C         41.5590   61.6050   40.1350 C.2    34  PRO34       0.2269
     49  O         41.3600   62.5660   39.4030 O.2    34  PRO34      -0.2865
     50  CB        42.1510   62.0790   42.5300 C.3    34  PRO34       0.0296
     51  CG        42.2690   63.5720   42.5370 C.3    34  PRO34       0.0237
     52  CD        43.5350   63.8640   41.7780 C.3    34  PRO34       0.0939
     53  N         40.9060   64.1430   36.6430 N.3    47  LEU47      -0.1231
     54  CA        41.6060   65.3790   36.9830 C.3    47  LEU47       0.1693
     55  C         43.0480   65.3410   36.5060 C.2    47  LEU47       0.2593
     56  O         43.7560   64.3290   36.6750 O.2    47  LEU47      -0.2718
     57  CB        41.6010   65.5980   38.4960 C.3    47  LEU47       0.0284
     58  CG        40.3590   66.1120   39.2330 C.3    47  LEU47       0.0019
     59  CD1       39.8920   67.4030   38.6210 C.3    47  LEU47       0.0001
     60  CD2       39.2160   65.1450   39.2480 C.3    47  LEU47       0.0001
     61  N         43.4900   66.4360   35.9100 N.am   48  GLY48      -0.1943
     62  CA        44.8230   66.5230   35.3710 C.3    48  GLY48       0.2002
     63  C         44.9740   65.7020   34.0870 C.2    48  GLY48       0.2518
     64  O         43.9920   65.1170   33.5960 O.2    48  GLY48      -0.2726
     65  N         46.1850   65.6910   33.5100 N.am   49  PRO49      -0.2490
     66  CA        47.3580   66.4750   33.9570 C.3    49  PRO49       0.1619
     67  C         47.1610   67.9540   33.6660 C.2    49  PRO49       0.2605
     68  O         46.2350   68.3180   32.9210 O.2    49  PRO49      -0.2715
     69  CB        48.5120   65.9530   33.0960 C.3    49  PRO49       0.0570
     70  CG        47.9130   65.0990   32.0140 C.2    49  PRO49      -0.0077
     71  CD        46.4410   64.8990   32.2920 C.2    49  PRO49       0.0634
     72  N         48.0190   68.7950   34.2360 N.am   50  ILE50      -0.1978
     73  CA        48.0000   70.2190   33.9630 C.3    50  ILE50       0.1596
     74  C         49.3570   70.6040   33.4120 C.2    50  ILE50       0.2287
     75  O         50.3640   69.9570   33.7200 O.2    50  ILE50      -0.2864
     76  CB        47.6310   71.0650   35.2260 C.3    50  ILE50       0.0276
     77  CG1       47.4030   72.5380   34.8370 C.3    50  ILE50       0.0022
     78  CG2       48.7010   70.9360   36.3410 C.3    50  ILE50       0.0022
     79  CD1       46.7680   73.3670   35.9260 C.3    50  ILE50       0.0001
     80  N         52.4160   73.0800   33.2960 N.3    52  LEU52      -0.1245
     81  CA        53.0600   74.0050   34.1990 C.3    52  LEU52       0.1561
     82  C         53.8370   75.0180   33.3790 C.2    52  LEU52       0.2260
     83  O         53.2610   75.9310   32.7920 O.2    52  LEU52      -0.2867
     84  CB        54.0130   73.2210   35.1220 C.3    52  LEU52       0.0270
     85  CG        53.5300   72.3620   36.3090 C.3    52  LEU52       0.0019
     86  CD1       52.0200   72.2330   36.4520 C.3    52  LEU52       0.0001
     87  CD2       54.2120   70.9790   36.3040 C.3    52  LEU52       0.0001
     88  N         50.6410   81.8010   38.4790 N.3    60  LEU60      -0.1245
     89  CA        50.2160   81.2430   39.7490 C.3    60  LEU60       0.1561
     90  C         50.8310   81.9880   40.9340 C.2    60  LEU60       0.2260
     91  O         50.1380   82.2820   41.9120 O.2    60  LEU60      -0.2867
     92  CB        50.5770   79.7610   39.8240 C.3    60  LEU60       0.0270
     93  CG        50.2600   79.0640   41.1500 C.3    60  LEU60       0.0019
     94  CD1       48.7720   79.1640   41.4800 C.3    60  LEU60       0.0001
     95  CD2       50.7020   77.6030   41.1080 C.3    60  LEU60       0.0001
     96  N         48.3710   84.8700   32.3120 N.3   129  TRP129     -0.1241
     97  CA        47.3510   83.8460   32.0270 C.3   129  TRP129      0.1605
     98  C         46.8270   83.9610   30.5960 C.2   129  TRP129      0.2264
     99  O         46.5900   82.9170   29.9330 O.2   129  TRP129     -0.2867
    100  CB        46.1860   83.8680   33.0390 C.3   129  TRP129      0.0550
    101  CG        45.4070   82.5880   32.9940 C.ar  129  TRP129      0.0003
    102  CD1       44.2470   82.3410   32.2900 C.ar  129  TRP129      0.0946
    103  CD2       45.7510   81.3660   33.6370 C.ar  129  TRP129      0.0152
    104  NE1       43.8400   81.0470   32.4900 N.ar  129  TRP129     -0.2442
    105  CE2       44.7460   80.4230   33.3100 C.ar  129  TRP129      0.0810
    106  CE3       46.8190   80.9700   34.4710 C.ar  129  TRP129      0.0012
    107  CZ2       44.7720   79.1120   33.7750 C.ar  129  TRP129      0.0191
    108  CZ3       46.8400   79.6650   34.9400 C.ar  129  TRP129      0.0001
    109  CH2       45.8280   78.7430   34.5820 C.ar  129  TRP129      0.0015
@<TRIPOS>BOND
     1     7     6    1
     2     6     8    1
     3     6     5    1
     4    23    22    1
     5    24    22    1
     6     1     2    1
     7    22    21    2
     8     5     2    1
     9     2     3    1
    10    21    20    1
    11     3     9   am
    12     3     4    2
    13     9    10    1
    14    20    19    1
    15    19    18    1
    16    13    10    1
    17    99    98    2
    18    10    11    1
    19    98    97    1
    20    18    15    1
    21    11    12    2
    22    14    15    1
    23    70    71    2
    24    70    69    1
    25    97    96    1
    26    97   100    1
    27    15    16    1
    28   102   104   ar
    29   102   101   ar
    30    71    65    1
    31   104   105   ar
    32    83    82    2
    33    68    67    2
    34   101   100    1
    35   101   103   ar
    36    69    66    1
    37    80    81    1
    38   105   103   ar
    39   105   107   ar
    40    16    17    2
    41    16    25   am
    42    82    81    1
    43    74    75    2
    44    74    73    1
    45    65    66    1
    46    65    63   am
    47    64    63    2
    48   103   106   ar
    49    67    66    1
    50    67    72   am
    51   107   109   ar
    52    73    72    1
    53    73    76    1
    54    63    62    1
    55    28    27    2
    56    81    84    1
    57    25    26    1
    58    40    39    1
    59   106   108   ar
    60   109   108   ar
    61    77    76    1
    62    77    79    1
    63    84    85    1
    64    76    78    1
    65    27    26    1
    66    27    31   am
    67    62    61    1
    68    26    29    1
    69    39    36    1
    70    39    41    1
    71    61    55   am
    72    30    29    1
    73    35    33   am
    74    35    36    1
    75    32    31    1
    76    32    33    1
    77    87    85    1
    78    85    86    1
    79    33    34    2
    80    36    37    1
    81    55    56    2
    82    55    54    1
    83    53    54    1
    84    54    57    1
    85    37    42   am
    86    37    38    2
    87    42    43    1
    88    88    89    1
    89    57    58    1
    90    59    58    1
    91    45    44    2
    92    58    60    1
    93    49    48    2
    94    43    44    1
    95    89    92    1
    96    89    90    1
    97    44    46   am
    98    92    93    1
    99    48    47    1
   100    46    47    1
   101    46    52    1
   102    90    91    2
   103    95    93    1
   104    93    94    1
   105    47    50    1
   106    52    51    1
   107    50    51    1
