@<TRIPOS>MOLECULE
tmp/2j8cB14.pdb
 91 88 0 0 0
SMALL
GASTEIGER

@<TRIPOS>ATOM
      1  N         -6.2170   92.4790   44.3600 N.3    75  LEU75      -0.1231
      2  CA        -6.2060   91.3960   43.3620 C.3    75  LEU75       0.1693
      3  C         -7.5140   91.3210   42.5580 C.2    75  LEU75       0.2593
      4  O         -7.7800   90.3320   41.8700 O.2    75  LEU75      -0.2718
      5  CB        -5.8620   90.0570   44.0270 C.3    75  LEU75       0.0284
      6  CG        -4.4310   89.9560   44.5550 C.3    75  LEU75       0.0019
      7  CD1       -4.2530   88.7080   45.3690 C.3    75  LEU75       0.0001
      8  CD2       -3.4360   89.9710   43.3570 C.3    75  LEU75       0.0001
      9  N         -8.3210   92.3820   42.6310 N.am   76  GLY76      -0.1942
     10  CA        -9.5440   92.4700   41.8310 C.3    76  GLY76       0.2014
     11  C         -9.3050   92.8650   40.3910 C.2    76  GLY76       0.2639
     12  O         -8.1620   93.1060   39.9720 O.2    76  GLY76      -0.2714
     13  N        -10.3900   92.9250   39.6270 N.am   77  GLY77      -0.1954
     14  CA       -10.3680   93.4430   38.2690 C.3    77  GLY77       0.1869
     15  C        -10.2960   94.9590   38.3100 C.2    77  GLY77       0.2309
     16  O        -10.5740   95.5580   39.3310 O.2    77  GLY77      -0.2863
     17  N         -3.8250   95.6660   31.0550 N.3    86  TRP86      -0.1227
     18  CA        -2.6530   94.9130   31.5430 C.3    86  TRP86       0.1737
     19  C         -3.0350   93.5140   31.9620 C.2    86  TRP86       0.2595
     20  O         -2.3020   92.5420   31.6820 O.2    86  TRP86      -0.2718
     21  CB        -1.9900   95.6350   32.7220 C.3    86  TRP86       0.0564
     22  CG        -0.7500   94.9250   33.2210 C.ar   86  TRP86       0.0003
     23  CD1        0.5360   95.1860   32.8580 C.ar   86  TRP86       0.0946
     24  CD2       -0.6990   93.8870   34.1930 C.ar   86  TRP86       0.0152
     25  NE1        1.3880   94.3380   33.5210 N.ar   86  TRP86      -0.2442
     26  CE2        0.6590   93.5250   34.3410 C.ar   86  TRP86       0.0810
     27  CE3       -1.6720   93.1960   34.9370 C.ar   86  TRP86       0.0012
     28  CZ2        1.0770   92.5130   35.2050 C.ar   86  TRP86       0.0191
     29  CZ3       -1.2520   92.1770   35.7980 C.ar   86  TRP86       0.0001
     30  CH2        0.1170   91.8490   35.9190 C.ar   86  TRP86       0.0015
     31  N         -4.1560   93.3950   32.6680 N.am   87  GLN87      -0.1979
     32  CA        -4.5990   92.1020   33.1660 C.3    87  GLN87       0.1601
     33  C         -4.8950   91.1380   32.0250 C.2    87  GLN87       0.2287
     34  O         -4.4530   89.9750   32.0620 O.2    87  GLN87      -0.2864
     35  CB        -5.8280   92.2600   34.0760 C.3    87  GLN87       0.0394
     36  CG        -5.4760   92.9440   35.4260 C.3    87  GLN87       0.0908
     37  CD        -6.7010   93.1560   36.3010 C.2    87  GLN87       0.2608
     38  OE1       -7.7230   93.6700   35.8340 O.2    87  GLN87      -0.2717
     39  NE2       -6.6090   92.7500   37.5640 N.am   87  GLN87      -0.0878
     40  N         -1.7100   90.2390   30.0810 N.3    90  THR90      -0.1203
     41  CA        -0.9450   89.2460   30.8420 C.3    90  THR90       0.1994
     42  C         -1.4800   87.8290   30.6480 C.2    90  THR90       0.2617
     43  O         -0.6930   86.8680   30.5410 O.2    90  THR90      -0.2717
     44  CB        -0.9190   89.6250   32.3380 C.3    90  THR90       0.1784
     45  OG1       -0.3020   90.9120   32.4550 O.3    90  THR90      -0.2211
     46  CG2       -0.1250   88.5950   33.1470 C.3    90  THR90       0.0376
     47  N         -2.8060   87.6800   30.6190 N.am   91  ILE91      -0.1979
     48  CA        -3.4000   86.3700   30.2990 C.3    91  ILE91       0.1595
     49  C         -2.9930   85.9260   28.8890 C.2    91  ILE91       0.2287
     50  O         -2.6180   84.7490   28.6820 O.2    91  ILE91      -0.2864
     51  CB        -4.9330   86.4060   30.4420 C.3    91  ILE91       0.0276
     52  CG1       -5.3040   86.6750   31.9060 C.3    91  ILE91       0.0022
     53  CG2       -5.5720   85.0950   29.9210 C.3    91  ILE91       0.0022
     54  CD1       -6.8050   87.0360   32.1130 C.3    91  ILE91       0.0001
     55  N          0.7360   84.9200   28.8030 N.3    94  THR94      -0.1218
     56  CA         0.9160   83.6300   29.4410 C.3    94  THR94       0.1862
     57  C          0.4290   82.5470   28.5000 C.2    94  THR94       0.2287
     58  O          1.1220   81.5430   28.3160 O.2    94  THR94      -0.2866
     59  CB         0.1560   83.5670   30.7810 C.3    94  THR94       0.1770
     60  OG1        0.7200   84.5640   31.6470 O.3    94  THR94      -0.2211
     61  CG2        0.3230   82.2110   31.4140 C.3    94  THR94       0.0375
     62  N          6.2020   84.5480   35.2100 N.3   129  LEU129     -0.1245
     63  CA         5.0230   84.4190   36.0870 C.3   129  LEU129      0.1561
     64  C          5.3340   84.7610   37.5410 C.2   129  LEU129      0.2260
     65  O          4.4440   85.2050   38.2820 O.2   129  LEU129     -0.2867
     66  CB         4.4180   83.0230   36.0230 C.3   129  LEU129      0.0270
     67  CG         3.7790   82.6610   34.6640 C.3   129  LEU129      0.0019
     68  CD1        3.4060   81.1900   34.6740 C.3   129  LEU129      0.0001
     69  CD2        2.5480   83.5640   34.3570 C.3   129  LEU129      0.0001
     70  N          2.6230   87.2990   38.3780 N.3   133  LEU133     -0.1245
     71  CA         1.5660   86.4920   38.9690 C.3   133  LEU133      0.1561
     72  C          1.8420   86.0470   40.3750 C.2   133  LEU133      0.2260
     73  O          1.0960   86.4250   41.2890 O.2   133  LEU133     -0.2867
     74  CB         1.2070   85.2680   38.0960 C.3   133  LEU133      0.0270
     75  CG         0.1320   84.3250   38.6830 C.3   133  LEU133      0.0019
     76  CD1       -1.2480   85.0210   38.8350 C.3   133  LEU133      0.0001
     77  CD2       -0.0140   83.0690   37.8310 C.3   133  LEU133      0.0001
     78  N         -2.0630   93.2320   42.1420 N.3   142  TRP142     -0.1241
     79  CA        -1.4930   93.2360   40.7660 C.3   142  TRP142      0.1605
     80  C         -0.5170   94.3750   40.5440 C.2   142  TRP142      0.2264
     81  O          0.4000   94.2650   39.7140 O.2   142  TRP142     -0.2867
     82  CB        -2.6010   93.3170   39.7040 C.3   142  TRP142      0.0550
     83  CG        -3.5320   92.1740   39.8030 C.ar  142  TRP142      0.0003
     84  CD1       -4.8690   92.2080   40.1530 C.ar  142  TRP142      0.0946
     85  CD2       -3.2030   90.7980   39.5940 C.ar  142  TRP142      0.0152
     86  NE1       -5.3750   90.9270   40.1710 N.ar  142  TRP142     -0.2442
     87  CE2       -4.3760   90.0480   39.8150 C.ar  142  TRP142      0.0810
     88  CE3       -2.0250   90.1280   39.2150 C.ar  142  TRP142      0.0012
     89  CZ2       -4.4080   88.6490   39.6890 C.ar  142  TRP142      0.0191
     90  CZ3       -2.0520   88.7480   39.0890 C.ar  142  TRP142      0.0001
     91  CH2       -3.2350   88.0170   39.3240 C.ar  142  TRP142      0.0015
@<TRIPOS>BOND
     1    58    57    2
     2    57    56    1
     3    50    49    2
     4    55    56    1
     5    49    48    1
     6    56    59    1
     7    53    51    1
     8    40    41    1
     9    48    51    1
    10    48    47    1
    11    51    52    1
    12    43    42    2
    13    47    42   am
    14    42    41    1
    15    59    61    1
    16    59    60    1
    17    41    44    1
    18    17    18    1
    19    18    19    1
    20    18    21    1
    21    20    19    2
    22    52    54    1
    23    19    31   am
    24    33    34    2
    25    33    32    1
    26    44    45    1
    27    44    46    1
    28    31    32    1
    29    21    22    1
    30    23    22   ar
    31    23    25   ar
    32    32    35    1
    33    22    24   ar
    34    25    26   ar
    35    35    36    1
    36    24    26   ar
    37    24    27   ar
    38    26    28   ar
    39    69    67    1
    40    67    68    1
    41    67    66    1
    42    27    29   ar
    43    28    30   ar
    44    62    63    1
    45    36    37    1
    46    29    30   ar
    47    38    37    2
    48    66    63    1
    49    63    64    1
    50    37    39   am
    51    64    65    2
    52    77    75    1
    53    74    75    1
    54    74    71    1
    55    14    15    1
    56    14    13    1
    57    15    16    2
    58    70    71    1
    59    75    76    1
    60    71    72    1
    61    90    88   ar
    62    90    91   ar
    63    88    85   ar
    64    91    89   ar
    65    85    83   ar
    66    85    87   ar
    67    13    11   am
    68    89    87   ar
    69    82    83    1
    70    82    79    1
    71    81    80    2
    72    83    84   ar
    73    87    86   ar
    74    12    11    2
    75    84    86   ar
    76    72    73    2
    77    11    10    1
    78    80    79    1
    79    79    78    1
    80    10     9    1
    81     4     3    2
    82     3     9   am
    83     3     2    1
    84     8     6    1
    85     2     5    1
    86     2     1    1
    87     5     6    1
    88     6     7    1
