@<TRIPOS>MOLECULE
tmp/2j8cA02.pdb
 106 103 0 0 0
SMALL
GASTEIGER

@<TRIPOS>ATOM
      1  N         25.8920   99.9170   16.3760 N.3    11  TRP11      -0.1241
      2  CA        24.7390   99.3440   15.7020 C.3    11  TRP11       0.1605
      3  C         25.0760   98.9260   14.2670 C.2    11  TRP11       0.2264
      4  O         24.5630   97.9210   13.7880 O.2    11  TRP11      -0.2867
      5  CB        23.5310  100.2880   15.7270 C.3    11  TRP11       0.0550
      6  CG        22.8450  100.3100   17.0640 C.ar   11  TRP11       0.0003
      7  CD1       22.8410  101.3370   17.9660 C.ar   11  TRP11       0.0946
      8  CD2       22.0760   99.2500   17.6550 C.ar   11  TRP11       0.0152
      9  NE1       22.1100  100.9800   19.0870 N.ar   11  TRP11      -0.2442
     10  CE2       21.6350   99.7060   18.9210 C.ar   11  TRP11       0.0810
     11  CE3       21.7220   97.9600   17.2410 C.ar   11  TRP11       0.0012
     12  CZ2       20.8470   98.9280   19.7700 C.ar   11  TRP11       0.0191
     13  CZ3       20.9330   97.1850   18.0880 C.ar   11  TRP11       0.0001
     14  CH2       20.5020   97.6770   19.3380 C.ar   11  TRP11       0.0015
     15  N         26.9480   95.7740   14.5940 N.3    14  LEU14      -0.1245
     16  CA        26.0800   94.6560   14.9650 C.3    14  LEU14       0.1561
     17  C         25.3260   94.1430   13.7520 C.2    14  LEU14       0.2260
     18  O         25.1870   92.9470   13.5710 O.2    14  LEU14      -0.2867
     19  CB        25.1090   95.0380   16.0890 C.3    14  LEU14       0.0270
     20  CG        24.2430   93.9030   16.6570 C.3    14  LEU14       0.0019
     21  CD1       25.0600   92.7090   17.1730 C.3    14  LEU14       0.0001
     22  CD2       23.3000   94.4000   17.7760 C.3    14  LEU14       0.0001
     23  N         25.5550   90.2440   12.4660 N.3    18  ILE18      -0.1245
     24  CA        24.4050   89.3970   12.2370 C.3    18  ILE18       0.1561
     25  C         24.3930   88.8620   10.7920 C.2    18  ILE18       0.2260
     26  O         24.1140   87.6910   10.5450 O.2    18  ILE18      -0.2867
     27  CB        23.0890   90.1230   12.6140 C.3    18  ILE18       0.0252
     28  CG1       23.0340   90.2780   14.1520 C.3    18  ILE18       0.0019
     29  CG2       21.8690   89.3330   12.1440 C.3    18  ILE18       0.0019
     30  CD1       21.9940   91.3040   14.6160 C.3    18  ILE18       0.0001
     31  N         24.5290   84.9730   10.1560 N.3    22  GLN22      -0.1245
     32  CA        23.4660   84.3060    9.4150 C.3    22  GLN22       0.1566
     33  C         24.0200   83.6050    8.1740 C.2    22  GLN22       0.2260
     34  O         23.7020   82.4290    7.9280 O.2    22  GLN22      -0.2867
     35  CB        22.2930   85.2490    9.0650 C.3    22  GLN22       0.0367
     36  CG        21.1840   84.5360    8.2420 C.3    22  GLN22       0.0905
     37  CD        20.6360   83.2560    8.9040 C.2    22  GLN22       0.2608
     38  OE1       20.6380   83.1200   10.1410 O.2    22  GLN22      -0.2717
     39  NE2       20.1610   82.3100    8.0760 N.am   22  GLN22      -0.0878
     40  N         24.5080   79.3410    6.8530 N.3    26  MET26      -0.1245
     41  CA        23.9020   78.8220    5.6150 C.3    26  MET26       0.1570
     42  C         24.8460   77.8970    4.8520 C.2    26  MET26       0.2261
     43  O         24.5950   77.5540    3.6880 O.2    26  MET26      -0.2867
     44  CB        23.4240   79.9830    4.7490 C.3    26  MET26       0.0387
     45  CG        22.2550   80.6820    5.4230 C.3    26  MET26       0.0595
     46  SD        21.8940   82.2870    4.6940 S.3    26  MET26      -0.1393
     47  CE        21.3330   81.7700    3.0670 C.3    26  MET26       0.0692
     48  N         21.3610   74.6700    2.2890 N.3    30  TYR30      -0.1241
     49  CA        20.9510   75.6770    1.2920 C.3    30  TYR30       0.1605
     50  C         21.6530   75.3740   -0.0380 C.2    30  TYR30       0.2264
     51  O         22.7400   74.7970   -0.0280 O.2    30  TYR30      -0.2867
     52  CB        21.3470   77.0940    1.7720 C.3    30  TYR30       0.0534
     53  CG        20.4930   77.6430    2.9060 C.ar   30  TYR30      -0.0201
     54  CD1       20.7360   77.2670    4.2250 C.ar   30  TYR30      -0.0009
     55  CD2       19.4700   78.5750    2.6610 C.ar   30  TYR30      -0.0009
     56  CE1       19.9540   77.7670    5.2860 C.ar   30  TYR30       0.0417
     57  CE2       18.6850   79.0930    3.7180 C.ar   30  TYR30       0.0417
     58  CZ        18.9310   78.6710    5.0280 C.ar   30  TYR30       0.1957
     59  OH        18.1840   79.1590    6.0930 O.3    30  TYR30      -0.2866
     60  N         17.5930   76.5290   -0.5600 N.3    32  LEU32      -0.1245
     61  CA        16.3440   75.9410   -0.1380 C.3    32  LEU32       0.1561
     62  C         15.7220   75.2630   -1.3540 C.2    32  LEU32       0.2260
     63  O         16.0070   75.6540   -2.4890 O.2    32  LEU32      -0.2867
     64  CB        15.4170   77.0180    0.3880 C.3    32  LEU32       0.0270
     65  CG        15.9930   77.7650    1.5930 C.3    32  LEU32       0.0019
     66  CD1       14.9960   78.7790    2.0100 C.3    32  LEU32       0.0001
     67  CD2       16.2500   76.7300    2.7180 C.3    32  LEU32       0.0001
     68  N         12.2260   81.3880   -3.8010 N.3    42  ASN42      -0.1225
     69  CA        12.5060   82.3700   -2.7650 C.3    42  ASN42       0.1785
     70  C         13.6030   81.8600   -1.8400 C.2    42  ASN42       0.2597
     71  O         13.3710   80.9460   -1.0450 O.2    42  ASN42      -0.2718
     72  CB        11.2380   82.7010   -1.9740 C.3    42  ASN42       0.1169
     73  CG        11.3910   83.9550   -1.1120 C.2    42  ASN42       0.2627
     74  OD1       12.5000   84.4530   -0.8880 O.2    42  ASN42      -0.2716
     75  ND2       10.2610   84.4780   -0.6360 N.am   42  ASN42      -0.0877
     76  N         14.7950   82.4320   -1.9700 N.am   43  GLN43      -0.1965
     77  CA        15.9380   82.0100   -1.1470 C.3    43  GLN43       0.1733
     78  C         16.1520   82.9420    0.0510 C.2    43  GLN43       0.2617
     79  O         17.0050   82.6970    0.9110 O.2    43  GLN43      -0.2715
     80  CB        17.2060   81.9150   -1.9910 C.3    43  GLN43       0.0408
     81  CG        17.1770   80.8420   -3.0660 C.3    43  GLN43       0.0908
     82  CD        17.1270   79.4450   -2.4900 C.2    43  GLN43       0.2608
     83  OE1       17.7060   79.1780   -1.4230 O.2    43  GLN43      -0.2717
     84  NE2       16.4370   78.5390   -3.1870 N.am   43  GLN43      -0.0878
     85  N         15.3670   84.0020    0.1030 N.am   44  GLY44      -0.1941
     86  CA        15.5150   85.0150    1.1360 C.3    44  GLY44       0.1998
     87  C         16.6110   86.0110    0.8260 C.2    44  GLY44       0.2481
     88  O         17.2730   85.9320   -0.2130 O.2    44  GLY44      -0.2729
     89  N         16.8200   86.9670    1.7330 N.am   45  PRO45      -0.2715
     90  CA        17.6770   88.1030    1.4430 C.3    45  PRO45       0.1536
     91  C         19.1690   87.8710    1.6690 C.2    45  PRO45       0.2598
     92  O         19.9750   88.7320    1.2960 O.2    45  PRO45      -0.2715
     93  CB        17.1600   89.1650    2.4130 C.3    45  PRO45       0.0310
     94  CG        16.6660   88.3920    3.5900 C.3    45  PRO45       0.0237
     95  CD        16.2320   87.0330    3.0850 C.3    45  PRO45       0.0939
     96  N         19.5460   86.7640    2.3090 N.am   46  PHE46      -0.1974
     97  CA        20.9660   86.5010    2.5970 C.3    46  PHE46       0.1639
     98  C         21.5450   85.5960    1.5170 C.2    46  PHE46       0.2290
     99  O         20.9600   84.5670    1.2110 O.2    46  PHE46      -0.2864
    100  CB        21.1440   85.8160    3.9650 C.3    46  PHE46       0.0560
    101  CG        20.5830   86.5960    5.1310 C.ar   46  PHE46      -0.0200
    102  CD1       21.3840   87.4630    5.8520 C.ar   46  PHE46      -0.0042
    103  CD2       19.2570   86.4250    5.5240 C.ar   46  PHE46      -0.0042
    104  CE1       20.8670   88.1750    6.9350 C.ar   46  PHE46      -0.0003
    105  CE2       18.7270   87.1390    6.6040 C.ar   46  PHE46      -0.0003
    106  CZ        19.5430   88.0130    7.3080 C.ar   46  PHE46      -0.0000
@<TRIPOS>BOND
     1    68    69    1
     2    84    82   am
     3    81    82    1
     4    81    80    1
     5    69    72    1
     6    69    70    1
     7    82    83    2
     8    63    62    2
     9    80    77    1
    10    72    73    1
    11    76    70   am
    12    76    77    1
    13    70    71    2
    14    62    61    1
    15    77    78    1
    16    73    74    2
    17    73    75   am
    18    60    61    1
    19    88    87    2
    20    61    64    1
    21    50    51    2
    22    50    49    1
    23    78    85   am
    24    78    79    2
    25    85    86    1
    26    64    65    1
    27    87    86    1
    28    87    89   am
    29    99    98    2
    30    49    52    1
    31    49    48    1
    32    92    91    2
    33    90    91    1
    34    90    89    1
    35    90    93    1
    36    98    97    1
    37    65    66    1
    38    65    67    1
    39    91    96   am
    40    89    95    1
    41    52    53    1
    42    96    97    1
    43    93    94    1
    44    97   100    1
    45    55    53   ar
    46    55    57   ar
    47    53    54   ar
    48    47    46    1
    49    95    94    1
    50    43    42    2
    51    57    58   ar
    52   100   101    1
    53    54    56   ar
    54    46    45    1
    55    44    45    1
    56    44    41    1
    57    42    41    1
    58    58    56   ar
    59    58    59    1
    60   101   103   ar
    61   101   102   ar
    62   103   105   ar
    63    41    40    1
    64   102   104   ar
    65   105   106   ar
    66   104   106   ar
    67    34    33    2
    68    39    37   am
    69    33    32    1
    70    36    37    1
    71    36    35    1
    72    37    38    2
    73    35    32    1
    74    32    31    1
    75    26    25    2
    76    25    24    1
    77    29    27    1
    78    24    23    1
    79    24    27    1
    80    27    28    1
    81    18    17    2
    82    17    16    1
    83     4     3    2
    84    28    30    1
    85     3     2    1
    86    15    16    1
    87    16    19    1
    88     2     5    1
    89     2     1    1
    90     5     6    1
    91    19    20    1
    92    20    21    1
    93    20    22    1
    94     6     8   ar
    95     6     7   ar
    96    11     8   ar
    97    11    13   ar
    98     8    10   ar
    99     7     9   ar
   100    13    14   ar
   101    10     9   ar
   102    10    12   ar
   103    14    12   ar
