@<TRIPOS>MOLECULE
tmp/2j8dC05.pdb
 81 79 0 0 0
SMALL
GASTEIGER

@<TRIPOS>ATOM
      1  N         21.0540  103.5910   33.8960 N.3   197  PHE197     -0.1241
      2  CA        20.1430  103.0430   32.9230 C.3   197  PHE197      0.1605
      3  C         19.7200  103.9740   31.7640 C.2   197  PHE197      0.2264
      4  O         19.0770  103.5480   30.8030 O.2   197  PHE197     -0.2867
      5  CB        19.1380  102.0160   33.4810 C.3   197  PHE197      0.0534
      6  CG        18.0640  102.5560   34.2860 C.ar  197  PHE197     -0.0203
      7  CD1       17.3380  103.6890   33.8650 C.ar  197  PHE197     -0.0042
      8  CD2       17.6730  101.8600   35.4470 C.ar  197  PHE197     -0.0042
      9  CE1       16.2130  104.2190   34.6490 C.ar  197  PHE197     -0.0003
     10  CE2       16.5960  102.3250   36.2240 C.ar  197  PHE197     -0.0003
     11  CZ        15.8400  103.5480   35.8330 C.ar  197  PHE197     -0.0000
     12  N         25.0760  100.9260   28.5320 N.3   202  HIS202     -0.1226
     13  CA        24.6620  100.0640   29.6870 C.3   202  HIS202      0.1752
     14  C         23.4540   99.2750   29.2640 C.2   202  HIS202      0.2596
     15  O         23.3660   98.0970   29.5340 O.2   202  HIS202     -0.2718
     16  CB        24.3950  100.9170   30.9710 C.3   202  HIS202      0.0759
     17  CG        24.0790  100.1210   32.2180 C.ar  202  HIS202      0.0818
     18  ND1       22.7910   99.9200   32.6570 N.ar  202  HIS202     -0.2268
     19  CD2       24.8830   99.5210   33.1380 C.ar  202  HIS202      0.1154
     20  CE1       22.8080   99.2100   33.7800 C.ar  202  HIS202      0.1986
     21  NE2       24.0680   98.9460   34.1000 N.ar  202  HIS202     -0.2212
     22  N         22.4940   99.8950   28.5890 N.am  203  GLY203     -0.1957
     23  CA        21.3210   99.1120   28.1780 C.3   203  GLY203      0.1869
     24  C         21.7430   98.0280   27.1710 C.2   203  GLY203      0.2309
     25  O         21.2050   96.9370   27.1650 O.2   203  GLY203     -0.2863
     26  N         23.4010   95.1970   28.9630 N.3   206  ILE206     -0.1231
     27  CA        22.4590   94.2850   29.5710 C.3   206  ILE206      0.1692
     28  C         21.6770   93.4070   28.5540 C.2   206  ILE206      0.2592
     29  O         21.3930   92.2250   28.8260 O.2   206  ILE206     -0.2718
     30  CB        21.4720   94.9180   30.6690 C.3   206  ILE206      0.0266
     31  CG1       20.1080   95.0390   30.1730 C.3   206  ILE206      0.0019
     32  CG2       21.9450   96.1020   31.5610 C.3   206  ILE206      0.0020
     33  CD1       19.4460   93.9400   30.6910 C.3   206  ILE206      0.0001
     34  N         21.3630   93.9660   27.3660 N.am  207  ALA207     -0.1966
     35  CA        20.7340   93.1430   26.2990 C.3   207  ALA207      0.1728
     36  C         21.6210   91.9410   25.9960 C.2   207  ALA207      0.2616
     37  O         21.1470   90.8190   25.9080 O.2   207  ALA207     -0.2715
     38  CB        20.4890   93.9920   25.0640 C.3   207  ALA207      0.0334
     39  N         22.9250   92.1710   25.9000 N.am  208  PHE208     -0.1974
     40  CA        23.8920   91.0820   25.6520 C.3   208  PHE208      0.1639
     41  C         24.0590   90.1450   26.8400 C.2   208  PHE208      0.2290
     42  O         24.3190   88.9230   26.6760 O.2   208  PHE208     -0.2864
     43  CB        25.2290   91.6970   25.1840 C.3   208  PHE208      0.0560
     44  CG        25.1040   92.3950   23.8230 C.ar  208  PHE208     -0.0200
     45  CD1       24.6600   91.6680   22.7220 C.ar  208  PHE208     -0.0042
     46  CD2       25.3970   93.7430   23.6590 C.ar  208  PHE208     -0.0042
     47  CE1       24.4720   92.2830   21.4620 C.ar  208  PHE208     -0.0003
     48  CE2       25.2280   94.3850   22.3950 C.ar  208  PHE208     -0.0003
     49  CZ        24.7660   93.6480   21.3090 C.ar  208  PHE208     -0.0000
     50  N         21.6630   89.4490   29.2490 N.3   210  TYR210     -0.1227
     51  CA        20.4710   88.6220   29.2130 C.3   210  TYR210      0.1736
     52  C         20.5410   87.7230   27.9400 C.2   210  TYR210      0.2596
     53  O         20.1940   86.5530   27.9940 O.2   210  TYR210     -0.2718
     54  CB        19.2460   89.5170   29.0330 C.3   210  TYR210      0.0548
     55  CG        18.8740   90.4510   30.1860 C.ar  210  TYR210     -0.0200
     56  CD1       19.4820   90.3370   31.4700 C.ar  210  TYR210     -0.0009
     57  CD2       17.8750   91.4020   30.0100 C.ar  210  TYR210     -0.0009
     58  CE1       19.0790   91.1910   32.5430 C.ar  210  TYR210      0.0417
     59  CE2       17.4720   92.2350   31.0490 C.ar  210  TYR210      0.0417
     60  CZ        18.0900   92.1340   32.3140 C.ar  210  TYR210      0.1957
     61  OH        17.6820   92.9940   33.3210 O.3   210  TYR210     -0.2866
     62  N         20.9720   88.2980   26.8030 N.am  211  GLY211     -0.1957
     63  CA        20.9160   87.5360   25.4970 C.3   211  GLY211      0.1869
     64  C         21.8700   86.3720   25.6180 C.2   211  GLY211      0.2309
     65  O         21.6580   85.2940   25.1020 O.2   211  GLY211     -0.2863
     66  N         19.9730   83.8420   27.4540 N.3   214  LEU214     -0.1245
     67  CA        18.9610   83.3240   26.5330 C.3   214  LEU214      0.1561
     68  C         19.6800   82.3350   25.5930 C.2   214  LEU214      0.2260
     69  O         19.2320   81.1910   25.4140 O.2   214  LEU214     -0.2867
     70  CB        18.3550   84.5040   25.7080 C.3   214  LEU214      0.0270
     71  CG        17.6200   84.1830   24.3870 C.3   214  LEU214      0.0019
     72  CD1       16.5030   83.1880   24.5640 C.3   214  LEU214      0.0001
     73  CD2       17.1050   85.4490   23.7720 C.3   214  LEU214      0.0001
     74  N         27.8260   87.3090   21.2330 N.3   272  MET272     -0.1245
     75  CA        26.8140   87.6510   22.2490 C.3   272  MET272      0.1570
     76  C         27.5280   87.9130   23.6010 C.2   272  MET272      0.2261
     77  O         27.3500   88.9390   24.2030 O.2   272  MET272     -0.2867
     78  CB        25.7990   86.4990   22.4030 C.3   272  MET272      0.0387
     79  CG        24.6210   86.7800   23.4020 C.3   272  MET272      0.0595
     80  SD        23.5230   88.0600   22.8300 S.3   272  MET272     -0.1393
     81  CE        22.3860   87.1150   21.8040 C.3   272  MET272      0.0692
@<TRIPOS>BOND
     1    74    75    1
     2    49    47   ar
     3    49    48   ar
     4    47    45   ar
     5    81    80    1
     6    75    78    1
     7    75    76    1
     8    48    46   ar
     9    78    79    1
    10    45    44   ar
    11    80    79    1
    12    76    77    2
    13    46    44   ar
    14    73    71    1
    15    44    43    1
    16    71    72    1
    17    71    70    1
    18    38    35    1
    19    65    64    2
    20    43    40    1
    21    69    68    2
    22    63    64    1
    23    63    62    1
    24    68    67    1
    25    40    39    1
    26    40    41    1
    27    70    67    1
    28    39    36   am
    29    37    36    2
    30    36    35    1
    31    35    34    1
    32    67    66    1
    33    42    41    2
    34    62    52   am
    35    25    24    2
    36    24    23    1
    37    34    28   am
    38    52    53    2
    39    52    51    1
    40    23    22    1
    41    12    13    1
    42    28    29    2
    43    28    27    1
    44    22    14   am
    45    26    27    1
    46    54    51    1
    47    54    55    1
    48    51    50    1
    49    14    15    2
    50    14    13    1
    51    27    30    1
    52    13    16    1
    53    57    55   ar
    54    57    59   ar
    55    31    30    1
    56    31    33    1
    57    55    56   ar
    58    30    32    1
    59     4     3    2
    60    16    17    1
    61    59    60   ar
    62    56    58   ar
    63     3     2    1
    64    17    18   ar
    65    17    19   ar
    66    60    58   ar
    67    60    61    1
    68    18    20   ar
    69     2     5    1
    70     2     1    1
    71    19    21   ar
    72     5     6    1
    73    20    21   ar
    74     7     6   ar
    75     7     9   ar
    76     6     8   ar
    77     9    11   ar
    78     8    10   ar
    79    11    10   ar
