@<TRIPOS>MOLECULE
tmp/2j8dC06.pdb
 83 81 0 0 0
SMALL
GASTEIGER

@<TRIPOS>ATOM
      1  N         21.6630   89.4490   29.2490 N.3   210  TYR210     -0.1241
      2  CA        20.4710   88.6220   29.2130 C.3   210  TYR210      0.1605
      3  C         20.5410   87.7230   27.9400 C.2   210  TYR210      0.2264
      4  O         20.1940   86.5530   27.9940 O.2   210  TYR210     -0.2867
      5  CB        19.2460   89.5170   29.0330 C.3   210  TYR210      0.0534
      6  CG        18.8740   90.4510   30.1860 C.ar  210  TYR210     -0.0201
      7  CD1       19.4820   90.3370   31.4700 C.ar  210  TYR210     -0.0009
      8  CD2       17.8750   91.4020   30.0100 C.ar  210  TYR210     -0.0009
      9  CE1       19.0790   91.1910   32.5430 C.ar  210  TYR210      0.0417
     10  CE2       17.4720   92.2350   31.0490 C.ar  210  TYR210      0.0417
     11  CZ        18.0900   92.1340   32.3140 C.ar  210  TYR210      0.1957
     12  OH        17.6820   92.9940   33.3210 O.3   210  TYR210     -0.2866
     13  N         22.4110   84.6780   28.3820 N.3   213  ALA213     -0.1231
     14  CA        21.7170   83.5990   29.1070 C.3   213  ALA213      0.1694
     15  C         20.6500   82.9970   28.2170 C.2   213  ALA213      0.2591
     16  O         20.3730   81.8120   28.2620 O.2   213  ALA213     -0.2718
     17  CB        21.0030   84.1820   30.4480 C.3   213  ALA213      0.0304
     18  N         19.9730   83.8420   27.4540 N.am  214  LEU214     -0.1980
     19  CA        18.9610   83.3240   26.5330 C.3   214  LEU214      0.1596
     20  C         19.6800   82.3350   25.5930 C.2   214  LEU214      0.2287
     21  O         19.2320   81.1910   25.4140 O.2   214  LEU214     -0.2864
     22  CB        18.3550   84.5040   25.7080 C.3   214  LEU214      0.0297
     23  CG        17.6200   84.1830   24.3870 C.3   214  LEU214      0.0022
     24  CD1       16.5030   83.1880   24.5640 C.3   214  LEU214      0.0001
     25  CD2       17.1050   85.4490   23.7720 C.3   214  LEU214      0.0001
     26  N         21.1040   79.0880   27.2190 N.3   217  ALA217     -0.1231
     27  CA        19.9840   78.1940   27.5260 C.3   217  ALA217      0.1694
     28  C         19.5050   77.5260   26.2050 C.2   217  ALA217      0.2591
     29  O         19.2910   76.3280   26.1590 O.2   217  ALA217     -0.2718
     30  CB        18.8270   78.9490   28.1500 C.3   217  ALA217      0.0304
     31  N         19.3060   78.3280   25.1540 N.am  218  MET218     -0.1979
     32  CA        18.8930   77.7570   23.8220 C.3   218  MET218      0.1605
     33  C         19.8890   76.6790   23.3530 C.2   218  MET218      0.2287
     34  O         19.4850   75.5290   23.0930 O.2   218  MET218     -0.2864
     35  CB        18.7690   78.8860   22.7940 C.3   218  MET218      0.0413
     36  CG        17.5150   79.7630   22.9650 C.3   218  MET218      0.0598
     37  SD        17.6450   81.2050   21.8890 S.3   218  MET218     -0.1393
     38  CE        17.7820   80.3500   20.2580 C.3   218  MET218      0.0692
     39  N         20.4030   73.6190   25.7010 N.3   221  ALA221     -0.1245
     40  CA        19.2290   72.7460   25.6490 C.3   221  ALA221      0.1562
     41  C         19.1770   72.0170   24.2990 C.2   221  ALA221      0.2260
     42  O         18.8110   70.8310   24.2330 O.2   221  ALA221     -0.2867
     43  CB        17.9600   73.5610   25.8440 C.3   221  ALA221      0.0290
     44  N         14.6020   72.4560   14.3160 N.3   251  PHE251     -0.1227
     45  CA        13.7970   72.8860   15.4960 C.3   251  PHE251      0.1736
     46  C         13.6460   74.3940   15.4680 C.2   251  PHE251      0.2595
     47  O         12.5350   74.9300   15.5340 O.2   251  PHE251     -0.2718
     48  CB        14.4420   72.4610   16.8370 C.3   251  PHE251      0.0547
     49  CG        13.6880   73.0130   18.0170 C.ar  251  PHE251     -0.0202
     50  CD1       13.9330   74.3100   18.4790 C.ar  251  PHE251     -0.0042
     51  CD2       12.6720   72.2710   18.5830 C.ar  251  PHE251     -0.0042
     52  CE1       13.1800   74.8270   19.5500 C.ar  251  PHE251     -0.0003
     53  CE2       11.9030   72.8010   19.6470 C.ar  251  PHE251     -0.0003
     54  CZ        12.1710   74.0570   20.1200 C.ar  251  PHE251     -0.0000
     55  N         14.7530   75.0980   15.3260 N.am  252  TRP252     -0.1976
     56  CA        14.7270   76.5410   15.3320 C.3   252  TRP252      0.1640
     57  C         14.0800   77.1550   14.0710 C.2   252  TRP252      0.2290
     58  O         13.3830   78.1820   14.1490 O.2   252  TRP252     -0.2864
     59  CB        16.1440   77.0880   15.5830 C.3   252  TRP252      0.0576
     60  CG        16.5380   76.7330   17.0290 C.ar  252  TRP252      0.0006
     61  CD1       17.4560   75.8010   17.4470 C.ar  252  TRP252      0.0946
     62  CD2       15.9320   77.2760   18.2270 C.ar  252  TRP252      0.0152
     63  NE1       17.4750   75.7510   18.8590 N.ar  252  TRP252     -0.2442
     64  CE2       16.5510   76.6540   19.3400 C.ar  252  TRP252      0.0810
     65  CE3       14.9210   78.2420   18.4550 C.ar  252  TRP252      0.0012
     66  CZ2       16.1640   76.9390   20.6860 C.ar  252  TRP252      0.0191
     67  CZ3       14.5360   78.5280   19.8000 C.ar  252  TRP252      0.0001
     68  CH2       15.1780   77.8780   20.8870 C.ar  252  TRP252      0.0015
     69  N         10.4440   76.8890   14.5640 N.3   255  THR255     -0.1203
     70  CA        10.0090   77.7510   15.7030 C.3   255  THR255      0.1994
     71  C         10.0280   79.2180   15.3500 C.2   255  THR255      0.2617
     72  O          9.0070   79.8990   15.4340 O.2   255  THR255     -0.2717
     73  CB        10.9300   77.4410   16.9590 C.3   255  THR255      0.1784
     74  OG1       10.7120   76.0770   17.3460 O.3   255  THR255     -0.2211
     75  CG2       10.6370   78.3720   18.1950 C.3   255  THR255      0.0376
     76  N         11.1930   79.7180   14.9510 N.am  256  MET256     -0.1979
     77  CA        11.3400   81.1270   14.7410 C.3   256  MET256      0.1605
     78  C         11.6910   81.5590   13.3420 C.2   256  MET256      0.2287
     79  O         11.9830   82.7450   13.1470 O.2   256  MET256     -0.2864
     80  CB        12.3850   81.7190   15.6990 C.3   256  MET256      0.0413
     81  CG        13.7370   81.0410   15.6570 C.3   256  MET256      0.0598
     82  SD        14.9040   81.8660   16.8010 S.3   256  MET256     -0.1393
     83  CE        16.4540   81.1530   16.2840 C.3   256  MET256      0.0692
@<TRIPOS>BOND
     1    79    78    2
     2    78    77    1
     3    57    58    2
     4    57    56    1
     5    44    45    1
     6    69    70    1
     7    77    76    1
     8    77    80    1
     9    76    71   am
    10    55    56    1
    11    55    46   am
    12    56    59    1
    13    71    72    2
    14    71    70    1
    15    46    45    1
    16    46    47    2
    17    45    48    1
    18    59    60    1
    19    81    80    1
    20    81    82    1
    21    70    73    1
    22    83    82    1
    23    48    49    1
    24    73    74    1
    25    73    75    1
    26    60    61   ar
    27    60    62   ar
    28    61    63   ar
    29    49    50   ar
    30    49    51   ar
    31    62    65   ar
    32    62    64   ar
    33    65    67   ar
    34    50    52   ar
    35    51    53   ar
    36    63    64   ar
    37    64    66   ar
    38    52    54   ar
    39    53    54   ar
    40    67    68   ar
    41    38    37    1
    42    66    68   ar
    43    37    36    1
    44    35    36    1
    45    35    32    1
    46    34    33    2
    47    33    32    1
    48    25    23    1
    49    32    31    1
    50    42    41    2
    51    41    40    1
    52    23    24    1
    53    23    22    1
    54    31    28   am
    55    21    20    2
    56    20    19    1
    57    40    39    1
    58    40    43    1
    59    22    19    1
    60    29    28    2
    61    28    27    1
    62    19    18    1
    63    26    27    1
    64    18    15   am
    65    27    30    1
    66     3     4    2
    67     3     2    1
    68    15    16    2
    69    15    14    1
    70    13    14    1
    71     5     2    1
    72     5     6    1
    73    14    17    1
    74     2     1    1
    75     8     6   ar
    76     8    10   ar
    77     6     7   ar
    78    10    11   ar
    79     7     9   ar
    80    11     9   ar
    81    11    12    1
