@<TRIPOS>MOLECULE
tmp/2j8dA01.pdb
 84 81 0 0 0
SMALL
GASTEIGER

@<TRIPOS>ATOM
      1  N         25.6350   91.3640   12.4040 N.3    28  ILE28      -0.1245
      2  CA        24.5180   90.4550   12.2090 C.3    28  ILE28       0.1561
      3  C         24.4800   89.9170   10.7610 C.2    28  ILE28       0.2260
      4  O         24.1200   88.7550   10.5060 O.2    28  ILE28      -0.2867
      5  CB        23.1960   91.1670   12.5800 C.3    28  ILE28       0.0252
      6  CG1       23.1100   91.3040   14.1230 C.3    28  ILE28       0.0019
      7  CG2       21.9590   90.4070   12.0650 C.3    28  ILE28       0.0019
      8  CD1       22.0140   92.3230   14.5400 C.3    28  ILE28       0.0001
      9  N         24.6950   85.9580   10.1110 N.3    32  GLN32      -0.1245
     10  CA        23.6310   85.2680    9.3710 C.3    32  GLN32       0.1566
     11  C         24.2140   84.5920    8.1260 C.2    32  GLN32       0.2260
     12  O         23.9380   83.4160    7.8770 O.2    32  GLN32      -0.2867
     13  CB        22.5030   86.2420    9.0120 C.3    32  GLN32       0.0367
     14  CG        21.3060   85.6030    8.2540 C.3    32  GLN32       0.0905
     15  CD        20.8110   84.3060    8.8850 C.2    32  GLN32       0.2608
     16  OE1       20.7940   84.1580   10.1300 O.2    32  GLN32      -0.2717
     17  NE2       20.4040   83.3400    8.0280 N.am   32  GLN32      -0.0878
     18  N         24.8110   80.3670    6.7880 N.3    36  MET36      -0.1245
     19  CA        24.1960   79.8410    5.5610 C.3    36  MET36       0.1570
     20  C         25.1520   78.9190    4.8270 C.2    36  MET36       0.2261
     21  O         24.9570   78.6210    3.6370 O.2    36  MET36      -0.2867
     22  CB        23.7250   81.0050    4.6720 C.3    36  MET36       0.0387
     23  CG        22.5450   81.7250    5.3140 C.3    36  MET36       0.0595
     24  SD        22.2120   83.3170    4.5570 S.3    36  MET36      -0.1393
     25  CE        21.6530   82.7650    2.9320 C.3    36  MET36       0.0692
     26  N         21.6580   75.6400    2.2700 N.3    40  TYR40      -0.1241
     27  CA        21.2820   76.6530    1.2660 C.3    40  TYR40       0.1605
     28  C         22.0390   76.3330   -0.0520 C.2    40  TYR40       0.2264
     29  O         23.1540   75.8110    0.0150 O.2    40  TYR40      -0.2867
     30  CB        21.6970   78.0550    1.7310 C.3    40  TYR40       0.0534
     31  CG        20.8410   78.6240    2.8470 C.ar   40  TYR40      -0.0201
     32  CD1       21.0050   78.1910    4.1720 C.ar   40  TYR40      -0.0009
     33  CD2       19.8610   79.5870    2.5820 C.ar   40  TYR40      -0.0009
     34  CE1       20.2110   78.6940    5.2070 C.ar   40  TYR40       0.0417
     35  CE2       19.0550   80.1040    3.6150 C.ar   40  TYR40       0.0417
     36  CZ        19.2410   79.6410    4.9250 C.ar   40  TYR40       0.1957
     37  OH        18.4700   80.1270    5.9580 O.3    40  TYR40      -0.2866
     38  N         17.9810   77.4130   -0.6210 N.3    42  LEU42      -0.1245
     39  CA        16.6850   76.8490   -0.2670 C.3    42  LEU42       0.1561
     40  C         16.0750   76.1820   -1.5130 C.2    42  LEU42       0.2260
     41  O         16.3560   76.6200   -2.6430 O.2    42  LEU42      -0.2867
     42  CB        15.7610   77.9490    0.2250 C.3    42  LEU42       0.0270
     43  CG        16.2750   78.7300    1.4560 C.3    42  LEU42       0.0019
     44  CD1       15.2150   79.7180    1.9660 C.3    42  LEU42       0.0001
     45  CD2       16.6380   77.7250    2.5530 C.3    42  LEU42       0.0001
     46  N         12.5590   82.3090   -3.9670 N.3    52  ASN52      -0.1225
     47  CA        12.8680   83.2840   -2.9220 C.3    52  ASN52       0.1785
     48  C         13.9060   82.7250   -1.9570 C.2    52  ASN52       0.2597
     49  O         13.6140   81.8190   -1.1550 O.2    52  ASN52      -0.2718
     50  CB        11.5990   83.6870   -2.1710 C.3    52  ASN52       0.1169
     51  CG        11.8820   84.7020   -1.0550 C.2    52  ASN52       0.2627
     52  OD1       12.8130   85.5350   -1.1550 O.2    52  ASN52      -0.2716
     53  ND2       11.0830   84.6320    0.0190 N.am   52  ASN52      -0.0877
     54  N         15.1150   83.2540   -2.0730 N.am   53  GLN53      -0.1965
     55  CA        16.2400   82.8390   -1.2550 C.3    53  GLN53       0.1733
     56  C         16.4550   83.7520   -0.0120 C.2    53  GLN53       0.2617
     57  O         17.3570   83.5030    0.7990 O.2    53  GLN53      -0.2715
     58  CB        17.5020   82.8010   -2.1170 C.3    53  GLN53       0.0408
     59  CG        17.4790   81.7340   -3.2190 C.3    53  GLN53       0.0908
     60  CD        17.4720   80.3310   -2.6500 C.2    53  GLN53       0.2608
     61  OE1       18.1140   80.0660   -1.6170 O.2    53  GLN53      -0.2717
     62  NE2       16.7350   79.4260   -3.2950 N.am   53  GLN53      -0.0878
     63  N         15.6350   84.7930    0.1220 N.am   54  GLY54      -0.1941
     64  CA        15.8050   85.7980    1.1820 C.3    54  GLY54       0.1998
     65  C         16.7930   86.8960    0.8120 C.2    54  GLY54       0.2481
     66  O         17.4190   86.8250   -0.2310 O.2    54  GLY54      -0.2729
     67  N         16.9630   87.9090    1.6850 N.am   55  PRO55      -0.2715
     68  CA        17.8370   89.0580    1.4070 C.3    55  PRO55       0.1536
     69  C         19.3270   88.8480    1.6600 C.2    55  PRO55       0.2598
     70  O         20.1080   89.7550    1.3980 O.2    55  PRO55      -0.2715
     71  CB        17.3080   90.1320    2.3740 C.3    55  PRO55       0.0310
     72  CG        16.7700   89.3630    3.5300 C.3    55  PRO55       0.0237
     73  CD        16.2890   88.0280    2.9930 C.3    55  PRO55       0.0939
     74  N         19.7290   87.6940    2.1860 N.am   56  PHE56      -0.1974
     75  CA        21.1380   87.4390    2.4730 C.3    56  PHE56       0.1639
     76  C         21.7160   86.5080    1.3800 C.2    56  PHE56       0.2290
     77  O         21.1320   85.4620    1.0980 O.2    56  PHE56      -0.2864
     78  CB        21.3150   86.7650    3.8590 C.3    56  PHE56       0.0560
     79  CG        20.8090   87.5880    5.0290 C.ar   56  PHE56      -0.0200
     80  CD1       21.6220   88.5410    5.6360 C.ar   56  PHE56      -0.0042
     81  CD2       19.5300   87.3860    5.5320 C.ar   56  PHE56      -0.0042
     82  CE1       21.1550   89.2960    6.7260 C.ar   56  PHE56      -0.0003
     83  CE2       19.0500   88.1490    6.6040 C.ar   56  PHE56      -0.0003
     84  CZ        19.8720   89.1020    7.1990 C.ar   56  PHE56      -0.0000
@<TRIPOS>BOND
     1    46    47    1
     2    62    60   am
     3    59    60    1
     4    59    58    1
     5    47    50    1
     6    47    48    1
     7    60    61    2
     8    41    40    2
     9    50    51    1
    10    58    55    1
    11    54    48   am
    12    54    55    1
    13    48    49    2
    14    40    39    1
    15    55    56    1
    16    52    51    2
    17    51    53   am
    18    38    39    1
    19    39    42    1
    20    66    65    2
    21    28    29    2
    22    28    27    1
    23    56    63   am
    24    56    57    2
    25    63    64    1
    26    42    43    1
    27    65    64    1
    28    65    67   am
    29    77    76    2
    30    27    30    1
    31    27    26    1
    32    76    75    1
    33    70    69    2
    34    68    69    1
    35    68    67    1
    36    68    71    1
    37    43    44    1
    38    43    45    1
    39    69    74   am
    40    67    73    1
    41    30    31    1
    42    74    75    1
    43    71    72    1
    44    75    78    1
    45    33    31   ar
    46    33    35   ar
    47    31    32   ar
    48    25    24    1
    49    73    72    1
    50    35    36   ar
    51    21    20    2
    52    78    79    1
    53    32    34   ar
    54    24    23    1
    55    22    23    1
    56    22    19    1
    57    20    19    1
    58    36    34   ar
    59    36    37    1
    60    79    81   ar
    61    79    80   ar
    62    81    83   ar
    63    19    18    1
    64    80    82   ar
    65    83    84   ar
    66    82    84   ar
    67    12    11    2
    68    17    15   am
    69    11    10    1
    70    14    15    1
    71    14    13    1
    72    15    16    2
    73    13    10    1
    74    10     9    1
    75     4     3    2
    76     3     2    1
    77     7     5    1
    78     2     1    1
    79     2     5    1
    80     5     6    1
    81     6     8    1
