@<TRIPOS>MOLECULE
tmp/2j8dC03.pdb
 145 143 0 0 0
SMALL
GASTEIGER

@<TRIPOS>ATOM
      1  N         43.2620   78.2990   16.7950 N.3   143  GLY143     -0.1210
      2  CA        42.9800   79.6970   16.6340 C.3   143  GLY143      0.1956
      3  C         43.0880   80.3990   17.9850 C.2   143  GLY143      0.2612
      4  O         43.1790   79.7370   19.0460 O.2   143  GLY143     -0.2717
      5  N         43.0590   81.7250   17.9360 N.am  144  LYS144     -0.1965
      6  CA        43.3290   82.6010   19.0760 C.3   144  LYS144      0.1728
      7  C         42.0260   83.2180   19.6410 C.2   144  LYS144      0.2616
      8  O         42.0650   84.2520   20.2660 O.2   144  LYS144     -0.2715
      9  CB        44.2900   83.7270   18.6560 C.3   144  LYS144      0.0311
     10  CG        45.6520   83.2400   18.0350 C.3   144  LYS144      0.0038
     11  CD        46.3800   82.2130   18.9300 C.3   144  LYS144      0.0206
     12  CE        47.6020   81.5990   18.2100 C.3   144  LYS144      0.1093
     13  NZ        47.2460   80.6880   17.0510 N.3   144  LYS144     -0.1314
     14  N         40.8980   82.5610   19.4090 N.am  145  HIS145     -0.1973
     15  CA        39.5820   83.0800   19.7880 C.3   145  HIS145      0.1656
     16  C         39.4880   83.2780   21.3190 C.2   145  HIS145      0.2291
     17  O         38.9250   84.2540   21.7760 O.2   145  HIS145     -0.2864
     18  CB        38.5080   82.0990   19.3090 C.3   145  HIS145      0.0771
     19  CG        38.4780   81.9180   17.8110 C.ar  145  HIS145      0.0820
     20  ND1       39.4030   81.1560   17.1270 N.ar  145  HIS145     -0.2267
     21  CD2       37.6450   82.4300   16.8710 C.ar  145  HIS145      0.1154
     22  CE1       39.1280   81.1930   15.8330 C.ar  145  HIS145      0.1986
     23  NE2       38.0580   81.9500   15.6530 N.ar  145  HIS145     -0.2212
     24  N         41.2690   86.4360   22.1930 N.3   148  TRP148     -0.1227
     25  CA        40.4430   87.5790   21.7350 C.3   148  TRP148      0.1737
     26  C         39.2010   87.7870   22.6060 C.2   148  TRP148      0.2595
     27  O         38.9000   88.9140   22.9470 O.2   148  TRP148     -0.2718
     28  CB        40.0290   87.5020   20.2470 C.3   148  TRP148      0.0564
     29  CG        41.1870   87.4170   19.2890 C.ar  148  TRP148      0.0003
     30  CD1       41.2190   86.7010   18.1300 C.ar  148  TRP148      0.0946
     31  CD2       42.5080   88.0170   19.4240 C.ar  148  TRP148      0.0152
     32  NE1       42.4540   86.8260   17.5190 N.ar  148  TRP148     -0.2442
     33  CE2       43.2660   87.6170   18.2900 C.ar  148  TRP148      0.0810
     34  CE3       43.1230   88.8380   20.3920 C.ar  148  TRP148      0.0012
     35  CZ2       44.6070   88.0110   18.0950 C.ar  148  TRP148      0.0191
     36  CZ3       44.4620   89.2370   20.1940 C.ar  148  TRP148      0.0001
     37  CH2       45.1830   88.8210   19.0520 C.ar  148  TRP148      0.0015
     38  N         38.4880   86.7210   22.9520 N.am  149  ALA149     -0.1980
     39  CA        37.3220   86.8490   23.8730 C.3   149  ALA149      0.1597
     40  C         37.7660   87.3910   25.2660 C.2   149  ALA149      0.2287
     41  O         37.1680   88.3250   25.7850 O.2   149  ALA149     -0.2864
     42  CB        36.6280   85.5360   24.0110 C.3   149  ALA149      0.0319
     43  N         40.2730   89.2010   25.9650 N.3   151  LEU151     -0.1231
     44  CA        40.5960   90.5960   25.8190 C.3   151  LEU151      0.1693
     45  C         39.3820   91.5190   26.0240 C.2   151  LEU151      0.2592
     46  O         39.5180   92.6880   26.4470 O.2   151  LEU151     -0.2718
     47  CB        41.2220   90.8360   24.4460 C.3   151  LEU151      0.0284
     48  CG        41.9750   92.1410   24.2660 C.3   151  LEU151      0.0019
     49  CD1       43.2150   92.1750   25.1960 C.3   151  LEU151      0.0001
     50  CD2       42.4060   92.3170   22.7850 C.3   151  LEU151      0.0001
     51  N         38.1970   91.0220   25.6920 N.am  152  SER152     -0.1952
     52  CA        36.9940   91.8360   25.8730 C.3   152  SER152      0.1924
     53  C         36.6420   92.0030   27.3610 C.2   152  SER152      0.2314
     54  O         36.2150   93.0790   27.7700 O.2   152  SER152     -0.2863
     55  CB        35.8010   91.1930   25.1830 C.3   152  SER152      0.2116
     56  OG        34.6550   92.0130   25.3870 O.3   152  SER152     -0.2180
     57  N         39.1400   94.4260   28.7440 N.3   155  TRP155     -0.1241
     58  CA        38.7630   95.7870   28.4020 C.3   155  TRP155      0.1605
     59  C         37.9250   96.4720   29.5040 C.2   155  TRP155      0.2264
     60  O         38.2300   97.5860   29.8890 O.2   155  TRP155     -0.2867
     61  CB        37.9880   95.7620   27.0860 C.3   155  TRP155      0.0550
     62  CG        37.1830   96.9880   26.7120 C.ar  155  TRP155      0.0003
     63  CD1       35.8450   97.0270   26.5320 C.ar  155  TRP155      0.0946
     64  CD2       37.6640   98.3250   26.4210 C.ar  155  TRP155      0.0152
     65  NE1       35.4390   98.2860   26.1680 N.ar  155  TRP155     -0.2442
     66  CE2       36.5330   99.1060   26.0960 C.ar  155  TRP155      0.0810
     67  CE3       38.9310   98.9330   26.4150 C.ar  155  TRP155      0.0012
     68  CZ2       36.6220  100.4730   25.7480 C.ar  155  TRP155      0.0191
     69  CZ3       39.0180  100.2970   26.0940 C.ar  155  TRP155      0.0001
     70  CH2       37.8660  101.0470   25.7590 C.ar  155  TRP155      0.0015
     71  N         24.9860  102.4690   26.2090 N.3   201  PHE201     -0.1241
     72  CA        25.9140  101.3620   26.2510 C.3   201  PHE201      0.1605
     73  C         25.6590  100.4110   27.4340 C.2   201  PHE201      0.2264
     74  O         25.9450   99.2160   27.3340 O.2   201  PHE201     -0.2867
     75  CB        27.3360  101.8890   26.2090 C.3   201  PHE201      0.0534
     76  CG        27.7510  102.3640   24.8200 C.ar  201  PHE201     -0.0203
     77  CD1       28.0500  101.4410   23.8290 C.ar  201  PHE201     -0.0042
     78  CD2       27.8020  103.7130   24.5160 C.ar  201  PHE201     -0.0042
     79  CE1       28.4190  101.8570   22.5320 C.ar  201  PHE201     -0.0003
     80  CE2       28.1400  104.1500   23.2460 C.ar  201  PHE201     -0.0003
     81  CZ        28.4590  103.2130   22.2470 C.ar  201  PHE201     -0.0000
     82  N         29.6960   81.1750   16.7160 N.3   267  ARG267     -0.1245
     83  CA        30.0100   82.5690   16.4180 C.3   267  ARG267      0.1563
     84  C         28.9470   83.4900   16.9940 C.2   267  ARG267      0.2260
     85  O         29.2720   84.5480   17.4630 O.2   267  ARG267     -0.2867
     86  CB        30.1160   82.8410   14.9010 C.3   267  ARG267      0.0307
     87  CG        31.0860   81.9190   14.1500 C.3   267  ARG267      0.0489
     88  CD        31.5930   82.5150   12.7950 C.3   267  ARG267      0.2205
     89  NE        32.6410   81.6130   12.3080 N.pl3 267  ARG267     -0.0865
     90  CZ        33.9420   81.8150   12.4560 C.cat 267  ARG267      0.5346
     91  NH1       34.4090   82.9370   13.0350 N.pl3 267  ARG267      0.1354
     92  NH2       34.7780   80.8920   11.9950 N.pl3 267  ARG267      0.1354
     93  N         30.1180   83.4620   20.7500 N.3   270  ILE270     -0.1231
     94  CA        31.2960   84.2280   21.0920 C.3   270  ILE270      0.1692
     95  C         30.9660   85.7160   21.1160 C.2   270  ILE270      0.2592
     96  O         31.3730   86.4390   22.0420 O.2   270  ILE270     -0.2718
     97  CB        32.5280   83.8320   20.1660 C.3   270  ILE270      0.0266
     98  CG1       33.8930   84.1830   20.7850 C.3   270  ILE270      0.0019
     99  CG2       32.5040   84.5400   18.8160 C.3   270  ILE270      0.0020
    100  CD1       33.8340   84.1620   22.2230 C.3   270  ILE270      0.0001
    101  N         30.2020   86.1860   20.1310 N.am  271  TRP271     -0.1976
    102  CA        29.9180   87.6060   19.9980 C.3   271  TRP271      0.1640
    103  C         28.8620   88.0980   20.9920 C.2   271  TRP271      0.2290
    104  O         28.9860   89.1950   21.4880 O.2   271  TRP271     -0.2864
    105  CB        29.4450   87.9570   18.5680 C.3   271  TRP271      0.0576
    106  CG        30.6140   88.0820   17.6200 C.ar  271  TRP271      0.0006
    107  CD1       31.0510   87.1440   16.7200 C.ar  271  TRP271      0.0946
    108  CD2       31.5380   89.1670   17.5570 C.ar  271  TRP271      0.0152
    109  NE1       32.1760   87.5930   16.0770 N.ar  271  TRP271     -0.2442
    110  CE2       32.4930   88.8430   16.5610 C.ar  271  TRP271      0.0810
    111  CE3       31.6520   90.3940   18.2450 C.ar  271  TRP271      0.0012
    112  CZ2       33.5470   89.7030   16.2270 C.ar  271  TRP271      0.0191
    113  CZ3       32.7020   91.2650   17.9020 C.ar  271  TRP271      0.0001
    114  CH2       33.6350   90.9100   16.9000 C.ar  271  TRP271      0.0015
    115  N         31.0420   88.3810   24.1750 N.3   274  VAL274     -0.1231
    116  CA        32.0390   89.4490   24.2190 C.3   274  VAL274      0.1692
    117  C         31.4770   90.8490   24.1560 C.2   274  VAL274      0.2591
    118  O         32.1170   91.7910   24.6550 O.2   274  VAL274     -0.2718
    119  CB        33.2520   89.3270   23.1980 C.3   274  VAL274      0.0266
    120  CG1       33.7610   87.8810   23.0950 C.3   274  VAL274      0.0020
    121  CG2       32.9110   89.9070   21.8820 C.3   274  VAL274      0.0020
    122  N         30.3160   91.0100   23.5390 N.am  275  LEU275     -0.1980
    123  CA        29.7170   92.3340   23.4460 C.3   275  LEU275      0.1596
    124  C         29.2000   92.8550   24.8330 C.2   275  LEU275      0.2287
    125  O         28.9670   94.0490   25.0010 O.2   275  LEU275     -0.2864
    126  CB        28.5930   92.3360   22.3920 C.3   275  LEU275      0.0297
    127  CG        29.1160   92.3920   20.9100 C.3   275  LEU275      0.0022
    128  CD1       28.0240   92.0930   19.8760 C.3   275  LEU275      0.0001
    129  CD2       29.7960   93.7320   20.5960 C.3   275  LEU275      0.0001
    130  N         32.3480   94.5310   25.9120 N.3   278  LEU278     -0.1245
    131  CA        32.7620   95.5350   24.9370 C.3   278  LEU278      0.1561
    132  C         31.9150   96.7950   25.0600 C.2   278  LEU278      0.2260
    133  O         32.4440   97.8800   25.1960 O.2   278  LEU278     -0.2867
    134  CB        32.7070   94.9970   23.4810 C.3   278  LEU278      0.0270
    135  CG        33.8350   94.0820   22.9960 C.3   278  LEU278      0.0019
    136  CD1       33.5850   93.7230   21.5210 C.3   278  LEU278      0.0001
    137  CD2       35.2430   94.7280   23.1710 C.3   278  LEU278      0.0001
    138  N         32.8530  100.5780   27.0680 N.3   282  ILE282     -0.1245
    139  CA        32.6640  101.8390   26.4050 C.3   282  ILE282      0.1561
    140  C         31.7410  102.7310   27.2450 C.2   282  ILE282      0.2260
    141  O         31.9990  103.9260   27.3970 O.2   282  ILE282     -0.2867
    142  CB        32.0320  101.6510   24.9740 C.3   282  ILE282      0.0252
    143  CG1       33.0540  100.9830   24.0160 C.3   282  ILE282      0.0019
    144  CG2       31.5440  103.0190   24.4020 C.3   282  ILE282      0.0019
    145  CD1       32.4770  100.5600   22.6540 C.3   282  ILE282      0.0001
@<TRIPOS>BOND
     1    92    90    1
     2    89    90    2
     3    89    88    1
     4    90    91    1
     5    88    87    1
     6    87    86    1
     7    86    83    1
     8    23    22   ar
     9    23    21   ar
    10    22    20   ar
    11   109   110   ar
    12   109   107   ar
    13   112   110   ar
    14   112   114   ar
    15    83    82    1
    16    83    84    1
    17   110   108   ar
    18     2     1    1
    19     2     3    1
    20   107   106   ar
    21    21    19   ar
    22   114   113   ar
    23    84    85    2
    24    13    12    1
    25    20    19   ar
    26    32    30   ar
    27    32    33   ar
    28   108   106   ar
    29   108   111   ar
    30   106   105    1
    31    19    18    1
    32   113   111   ar
    33     5     3   am
    34     5     6    1
    35     3     4    2
    36    10     9    1
    37    10    11    1
    38    35    33   ar
    39    35    37   ar
    40    30    29   ar
    41    12    11    1
    42    33    31   ar
    43   105   102    1
    44     9     6    1
    45    99    97    1
    46    37    36   ar
    47     6     7    1
    48    29    31   ar
    49    29    28    1
    50    18    15    1
    51    14     7   am
    52    14    15    1
    53    31    34   ar
    54     7     8    2
    55    15    16    1
    56   128   127    1
    57   102   101    1
    58   102   103    1
    59   101    95   am
    60    97    98    1
    61    97    94    1
    62    36    34   ar
    63    28    25    1
    64   129   127    1
    65    93    94    1
    66    98   100    1
    67   127   126    1
    68   103   104    2
    69    94    95    1
    70    95    96    2
    71    16    17    2
    72   136   135    1
    73    25    24    1
    74    25    26    1
    75   121   119    1
    76    81    79   ar
    77    81    80   ar
    78   126   123    1
    79    79    77   ar
    80    26    27    2
    81    26    38   am
    82   145   143    1
    83    50    48    1
    84    38    39    1
    85   135   137    1
    86   135   134    1
    87   120   119    1
    88   119   116    1
    89    80    78   ar
    90   123   122    1
    91   123   124    1
    92   134   131    1
    93   122   117   am
    94    77    76   ar
    95    39    42    1
    96    39    40    1
    97   143   142    1
    98   117   116    1
    99   117   118    2
   100   115   116    1
   101    48    47    1
   102    48    49    1
   103   144   142    1
   104    47    44    1
   105    78    76   ar
   106    76    75    1
   107   124   125    2
   108   131   132    1
   109   131   130    1
   110   142   139    1
   111   132   133    2
   112    55    56    1
   113    55    52    1
   114    40    41    2
   115    51    52    1
   116    51    45   am
   117    68    70   ar
   118    68    66   ar
   119    70    69   ar
   120    44    43    1
   121    44    45    1
   122    52    53    1
   123    45    46    2
   124    69    67   ar
   125    66    65   ar
   126    66    64   ar
   127    65    63   ar
   128    71    72    1
   129    75    72    1
   130    72    73    1
   131   139   138    1
   132   139   140    1
   133    67    64   ar
   134    64    62   ar
   135    63    62   ar
   136    62    61    1
   137    61    58    1
   138   140   141    2
   139    74    73    2
   140    53    54    2
   141    58    57    1
   142    58    59    1
   143    59    60    2
