@<TRIPOS>MOLECULE
tmp/2j8dC02.pdb
 276 283 0 0 0
SMALL
GASTEIGER

@<TRIPOS>ATOM
      1  N         48.5370   89.6770   44.8850 N.3    66  TRP66      -0.1227
      2  CA        47.4100   90.6100   44.8700 C.3    66  TRP66       0.1737
      3  C         46.4580   90.2140   45.9770 C.2    66  TRP66       0.2595
      4  O         46.0290   91.0390   46.7510 O.2    66  TRP66      -0.2718
      5  CB        46.6860   90.5660   43.5170 C.3    66  TRP66       0.0564
      6  CG        45.3080   91.2050   43.4900 C.ar   66  TRP66       0.0003
      7  CD1       45.0280   92.5310   43.4890 C.ar   66  TRP66       0.0946
      8  CD2       44.0470   90.5240   43.4120 C.ar   66  TRP66       0.0152
      9  NE1       43.6700   92.7260   43.4300 N.ar   66  TRP66      -0.2442
     10  CE2       43.0450   91.5090   43.3720 C.ar   66  TRP66       0.0810
     11  CE3       43.6720   89.1750   43.3790 C.ar   66  TRP66       0.0012
     12  CZ2       41.6770   91.1970   43.3100 C.ar   66  TRP66       0.0191
     13  CZ3       42.3080   88.8600   43.3110 C.ar   66  TRP66       0.0001
     14  CH2       41.3290   89.8770   43.2630 C.ar   66  TRP66       0.0015
     15  N         46.1430   88.9300   46.0310 N.am   67  PHE67      -0.1962
     16  CA        45.2020   88.3830   46.9790 C.3    67  PHE67       0.1771
     17  C         45.6830   88.6090   48.4230 C.2    67  PHE67       0.2619
     18  O         44.8850   88.9370   49.3050 O.2    67  PHE67      -0.2715
     19  CB        45.0550   86.8950   46.6850 C.3    67  PHE67       0.0574
     20  CG        44.0010   86.1950   47.5040 C.ar   67  PHE67      -0.0200
     21  CD1       42.6470   86.4370   47.2830 C.ar   67  PHE67      -0.0042
     22  CD2       44.3690   85.2510   48.4630 C.ar   67  PHE67      -0.0042
     23  CE1       41.6710   85.7730   48.0200 C.ar   67  PHE67      -0.0003
     24  CE2       43.3920   84.5700   49.2110 C.ar   67  PHE67      -0.0003
     25  CZ        42.0380   84.8420   48.9870 C.ar   67  PHE67      -0.0000
     26  N         46.9840   88.4300   48.6500 N.am   68  PHE68      -0.1974
     27  CA        47.5580   88.5250   49.9950 C.3    68  PHE68       0.1639
     28  C         47.7180   89.9540   50.4220 C.2    68  PHE68       0.2290
     29  O         47.5350   90.2550   51.5920 O.2    68  PHE68      -0.2864
     30  CB        48.8800   87.7460   50.1270 C.3    68  PHE68       0.0560
     31  CG        48.7100   86.2560   50.0260 C.ar   68  PHE68      -0.0200
     32  CD1       49.6660   85.4700   49.3840 C.ar   68  PHE68      -0.0042
     33  CD2       47.5810   85.6340   50.5420 C.ar   68  PHE68      -0.0042
     34  CE1       49.5080   84.0830   49.2690 C.ar   68  PHE68      -0.0003
     35  CE2       47.4050   84.2410   50.4400 C.ar   68  PHE68      -0.0003
     36  CZ        48.3820   83.4620   49.8010 C.ar   68  PHE68      -0.0000
     37  N         45.6100   92.3250   49.7240 N.3    70  ILE70      -0.1231
     38  CA        44.2550   92.6440   50.2180 C.3    70  ILE70       0.1692
     39  C         44.0240   91.9710   51.5710 C.2    70  ILE70       0.2593
     40  O         43.5130   92.5880   52.4940 O.2    70  ILE70      -0.2718
     41  CB        43.0760   92.1270   49.2810 C.3    70  ILE70       0.0266
     42  CG1       43.2730   92.4080   47.7850 C.3    70  ILE70       0.0019
     43  CG2       41.7420   92.6930   49.7250 C.3    70  ILE70       0.0020
     44  CD1       43.6190   93.7790   47.4540 C.3    70  ILE70       0.0001
     45  N         44.3640   90.6890   51.6580 N.am   71  GLY71      -0.1942
     46  CA        44.0360   89.8690   52.8280 C.3    71  GLY71       0.2014
     47  C         44.7920   90.2990   54.0760 C.2    71  GLY71       0.2638
     48  O         44.2630   90.2530   55.1850 O.2    71  GLY71      -0.2714
     49  N         46.0290   90.7310   53.8710 N.am   72  ILE72      -0.1977
     50  CA        46.8610   91.2700   54.9290 C.3    72  ILE72       0.1596
     51  C         46.2630   92.5810   55.4630 C.2    72  ILE72       0.2287
     52  O         46.1180   92.7410   56.6770 O.2    72  ILE72      -0.2864
     53  CB        48.3430   91.3990   54.4510 C.3    72  ILE72       0.0276
     54  CG1       49.2540   90.5330   55.3250 C.3    72  ILE72       0.0022
     55  CG2       48.8000   92.8480   54.3350 C.3    72  ILE72       0.0022
     56  CD1       49.1160   88.9990   55.0560 C.3    72  ILE72       0.0001
     57  N         43.1730   93.3510   55.3170 N.3    74  PHE74      -0.1227
     58  CA        41.9460   92.9600   55.9850 C.3    74  PHE74       0.1736
     59  C         42.2460   92.5540   57.4470 C.2    74  PHE74       0.2595
     60  O         41.5410   92.9910   58.3730 O.2    74  PHE74      -0.2718
     61  CB        41.2350   91.8360   55.2130 C.3    74  PHE74       0.0547
     62  CG        40.4050   92.3240   54.0250 C.ar   74  PHE74      -0.0202
     63  CD1       40.6690   93.5520   53.4110 C.ar   74  PHE74      -0.0042
     64  CD2       39.3740   91.5390   53.5180 C.ar   74  PHE74      -0.0042
     65  CE1       39.8980   94.0060   52.3380 C.ar   74  PHE74      -0.0003
     66  CE2       38.6080   91.9820   52.4160 C.ar   74  PHE74      -0.0003
     67  CZ        38.8790   93.2180   51.8430 C.ar   74  PHE74      -0.0000
     68  N         43.2810   91.7240   57.6360 N.am   75  TRP75      -0.1976
     69  CA        43.7240   91.3130   58.9790 C.3    75  TRP75       0.1640
     70  C         44.0580   92.5370   59.8150 C.2    75  TRP75       0.2290
     71  O         43.6250   92.6400   60.9540 O.2    75  TRP75      -0.2864
     72  CB        44.9150   90.3610   58.9150 C.3    75  TRP75       0.0576
     73  CG        44.5040   88.9710   58.6710 C.ar   75  TRP75       0.0006
     74  CD1       44.5680   88.2990   57.4930 C.ar   75  TRP75       0.0946
     75  CD2       43.9260   88.0710   59.6180 C.ar   75  TRP75       0.0152
     76  NE1       44.0760   87.0280   57.6420 N.ar   75  TRP75      -0.2442
     77  CE2       43.6770   86.8570   58.9400 C.ar   75  TRP75       0.0810
     78  CE3       43.6070   88.1660   60.9790 C.ar   75  TRP75       0.0012
     79  CZ2       43.1170   85.7400   59.5730 C.ar   75  TRP75       0.0191
     80  CZ3       43.0570   87.0640   61.6090 C.ar   75  TRP75       0.0001
     81  CH2       42.8100   85.8630   60.9060 C.ar   75  TRP75       0.0015
     82  N         37.9100   89.1260   61.9420 N.3    85  PHE85      -0.1241
     83  CA        38.2100   88.8730   60.5420 C.3    85  PHE85       0.1605
     84  C         37.0140   88.2250   59.8540 C.2    85  PHE85       0.2264
     85  O         36.5670   88.7080   58.8140 O.2    85  PHE85      -0.2867
     86  CB        39.4450   87.9880   60.4100 C.3    85  PHE85       0.0534
     87  CG        39.8560   87.7150   58.9850 C.ar   85  PHE85      -0.0203
     88  CD1       40.6150   88.6390   58.2800 C.ar   85  PHE85      -0.0042
     89  CD2       39.5090   86.5110   58.3680 C.ar   85  PHE85      -0.0042
     90  CE1       41.0250   88.3790   56.9730 C.ar   85  PHE85      -0.0003
     91  CE2       39.9010   86.2400   57.0540 C.ar   85  PHE85      -0.0003
     92  CZ        40.6660   87.1820   56.3560 C.ar   85  PHE85      -0.0000
     93  N         34.3720   90.2010   57.4440 N.3    89  LEU89      -0.1245
     94  CA        34.9970   89.8290   56.1660 C.3    89  LEU89       0.1561
     95  C         34.4730   90.6350   54.9630 C.2    89  LEU89       0.2260
     96  O         35.2570   91.1720   54.1800 O.2    89  LEU89      -0.2867
     97  CB        34.8010   88.3240   55.9250 C.3    89  LEU89       0.0270
     98  CG        35.6300   87.7160   54.7900 C.3    89  LEU89       0.0019
     99  CD1       37.1350   88.0040   54.9240 C.3    89  LEU89       0.0001
    100  CD2       35.3350   86.2470   54.7050 C.3    89  LEU89       0.0001
    101  N         52.2180  108.2460   42.7530 N.3   105  PHE105     -0.1241
    102  CA        52.4690  107.1300   43.6570 C.3   105  PHE105      0.1605
    103  C         52.9290  107.6030   45.0510 C.2   105  PHE105      0.2264
    104  O         53.5520  106.8500   45.7920 O.2   105  PHE105     -0.2867
    105  CB        53.4570  106.1370   43.0340 C.3   105  PHE105      0.0534
    106  CG        53.0240  105.6110   41.6870 C.ar  105  PHE105     -0.0203
    107  CD1       51.7300  105.1460   41.4850 C.ar  105  PHE105     -0.0042
    108  CD2       53.9200  105.5720   40.6200 C.ar  105  PHE105     -0.0042
    109  CE1       51.3240  104.6610   40.2400 C.ar  105  PHE105     -0.0003
    110  CE2       53.5230  105.0880   39.3670 C.ar  105  PHE105     -0.0003
    111  CZ        52.2170  104.6310   39.1840 C.ar  105  PHE105     -0.0000
    112  N         46.8540  100.0000   48.0160 N.3   115  TRP115     -0.1227
    113  CA        45.9330   99.7050   46.9320 C.3   115  TRP115      0.1737
    114  C         46.7210   99.6580   45.6180 C.2   115  TRP115      0.2595
    115  O         46.4840   98.7690   44.7920 O.2   115  TRP115     -0.2718
    116  CB        44.8090  100.7490   46.8610 C.3   115  TRP115      0.0564
    117  CG        43.8450  100.5390   45.7370 C.ar  115  TRP115      0.0003
    118  CD1       42.6800   99.8350   45.7750 C.ar  115  TRP115      0.0946
    119  CD2       43.9630  101.0560   44.3970 C.ar  115  TRP115      0.0152
    120  NE1       42.0550   99.8820   44.5360 N.ar  115  TRP115     -0.2442
    121  CE2       42.8250  100.6230   43.6790 C.ar  115  TRP115      0.0810
    122  CE3       44.9160  101.8490   43.7430 C.ar  115  TRP115      0.0012
    123  CZ2       42.6310  100.9360   42.3340 C.ar  115  TRP115      0.0191
    124  CZ3       44.7220  102.1660   42.4100 C.ar  115  TRP115      0.0001
    125  CH2       43.5890  101.7070   41.7150 C.ar  115  TRP115      0.0015
    126  N         47.6530  100.6030   45.4480 N.am  116  LEU116     -0.1980
    127  CA        48.4500  100.6950   44.2260 C.3   116  LEU116      0.1596
    128  C         49.3210   99.4560   44.0540 C.2   116  LEU116      0.2287
    129  O         49.4420   98.9000   42.9590 O.2   116  LEU116     -0.2864
    130  CB        49.2910  101.9600   44.2090 C.3   116  LEU116      0.0297
    131  CG        48.5660  103.2750   43.9350 C.3   116  LEU116      0.0022
    132  CD1       49.4680  104.4580   44.3140 C.3   116  LEU116      0.0001
    133  CD2       48.1370  103.3800   42.4700 C.3   116  LEU116      0.0001
    134  N         47.0300   96.5430   43.1230 N.3   119  SER119     -0.1202
    135  CA        46.6430   96.7630   41.7440 C.3   119  SER119      0.2020
    136  C         47.7550   96.3750   40.7640 C.2   119  SER119      0.2618
    137  O         47.4980   95.7050   39.7460 O.2   119  SER119     -0.2717
    138  CB        46.2240   98.2100   41.5510 C.3   119  SER119      0.2103
    139  OG        45.0620   98.4390   42.3220 O.3   119  SER119     -0.2182
    140  N         48.9840   96.7790   41.0900 N.am  120  PHE120     -0.1975
    141  CA        50.1280   96.4620   40.2600 C.3   120  PHE120      0.1639
    142  C         50.2230   94.9570   40.0940 C.2   120  PHE120      0.2290
    143  O         50.3600   94.4750   38.9760 O.2   120  PHE120     -0.2864
    144  CB        51.4360   97.0470   40.8150 C.3   120  PHE120      0.0560
    145  CG        52.6480   96.6100   40.0460 C.ar  120  PHE120     -0.0200
    146  CD1       53.0310   97.2890   38.8930 C.ar  120  PHE120     -0.0042
    147  CD2       53.3650   95.4850   40.4340 C.ar  120  PHE120     -0.0042
    148  CE1       54.1500   96.8680   38.1420 C.ar  120  PHE120     -0.0003
    149  CE2       54.4830   95.0570   39.7040 C.ar  120  PHE120     -0.0003
    150  CZ        54.8740   95.7520   38.5550 C.ar  120  PHE120     -0.0000
    151  N         47.8630   92.8380   40.3810 N.3   122  MET122     -0.1230
    152  CA        46.6860   92.3680   39.6560 C.3   122  MET122      0.1702
    153  C         46.9080   92.5690   38.1540 C.2   122  MET122      0.2592
    154  O         46.5610   91.7120   37.3680 O.2   122  MET122     -0.2718
    155  CB        45.4270   93.1270   40.0710 C.3   122  MET122      0.0401
    156  CG        44.1490   92.3690   39.6930 C.3   122  MET122      0.0596
    157  SD        42.7140   93.4170   39.9680 S.3   122  MET122     -0.1393
    158  CE        41.4250   92.1960   39.8300 C.3   122  MET122      0.0692
    159  N         47.4860   93.7020   37.7950 N.am  123  PHE123     -0.1976
    160  CA        47.7920   94.0670   36.4020 C.3   123  PHE123      0.1639
    161  C         48.6910   93.0030   35.7670 C.2   123  PHE123      0.2290
    162  O         48.4020   92.4990   34.6750 O.2   123  PHE123     -0.2864
    163  CB        48.4680   95.4360   36.3790 C.3   123  PHE123      0.0560
    164  CG        48.6590   96.0200   35.0020 C.ar  123  PHE123     -0.0200
    165  CD1       47.6740   96.8280   34.4380 C.ar  123  PHE123     -0.0042
    166  CD2       49.8430   95.7910   34.2850 C.ar  123  PHE123     -0.0042
    167  CE1       47.8440   97.3940   33.1680 C.ar  123  PHE123     -0.0003
    168  CE2       50.0360   96.3480   33.0110 C.ar  123  PHE123     -0.0003
    169  CZ        49.0310   97.1540   32.4520 C.ar  123  PHE123     -0.0000
    170  N         37.6320   95.5720   32.7030 N.3   157  TRP157     -0.1227
    171  CA        38.5370   95.6260   33.8470 C.3   157  TRP157      0.1737
    172  C         39.5610   96.7760   33.7730 C.2   157  TRP157      0.2595
    173  O         39.6890   97.5590   34.7290 O.2   157  TRP157     -0.2718
    174  CB        39.2010   94.2630   33.9970 C.3   157  TRP157      0.0564
    175  CG        40.3850   94.2080   34.9310 C.ar  157  TRP157      0.0003
    176  CD1       40.3650   94.1140   36.3100 C.ar  157  TRP157      0.0946
    177  CD2       41.7620   94.1790   34.5470 C.ar  157  TRP157      0.0152
    178  NE1       41.6600   94.0430   36.7960 N.ar  157  TRP157     -0.2442
    179  CE2       42.5340   94.0910   35.7390 C.ar  157  TRP157      0.0810
    180  CE3       42.4250   94.2260   33.3090 C.ar  157  TRP157      0.0012
    181  CZ2       43.9340   94.0550   35.7240 C.ar  157  TRP157      0.0191
    182  CZ3       43.8120   94.1880   33.2960 C.ar  157  TRP157      0.0001
    183  CH2       44.5550   94.1140   34.5000 C.ar  157  TRP157      0.0015
    184  N         40.2630   96.9110   32.6340 N.am  158  MET158     -0.1979
    185  CA        41.1610   98.0330   32.3990 C.3   158  MET158      0.1605
    186  C         40.4700   99.3820   32.4630 C.2   158  MET158      0.2287
    187  O         41.0360  100.3560   32.9870 O.2   158  MET158     -0.2864
    188  CB        41.8500   97.9080   31.0330 C.3   158  MET158      0.0413
    189  CG        42.9440   96.8660   31.0040 C.3   158  MET158      0.0598
    190  SD        44.4300   97.4410   31.8740 S.3   158  MET158     -0.1393
    191  CE        45.0350   98.6220   30.6600 C.3   158  MET158      0.0692
    192  N         37.7140  100.1690   34.1630 N.3   160  LEU160     -0.1231
    193  CA        37.3210  100.4060   35.5580 C.3   160  LEU160      0.1693
    194  C         38.5020  100.8000   36.4480 C.2   160  LEU160      0.2593
    195  O         38.4210  101.8050   37.1400 O.2   160  LEU160     -0.2718
    196  CB        36.6100   99.1840   36.1510 C.3   160  LEU160      0.0284
    197  CG        35.1970   98.8830   35.6670 C.3   160  LEU160      0.0019
    198  CD1       34.8880   97.4030   35.9160 C.3   160  LEU160      0.0001
    199  CD2       34.1540   99.8140   36.2610 C.3   160  LEU160      0.0001
    200  N         39.5940  100.0400   36.3940 N.am  161  GLY161     -0.1942
    201  CA        40.7250  100.2390   37.2890 C.3   161  GLY161      0.2014
    202  C         41.8890  101.1040   36.8320 C.2   161  GLY161      0.2638
    203  O         42.7180  101.4890   37.6690 O.2   161  GLY161     -0.2714
    204  N         41.9590  101.4390   35.5370 N.am  162  PHE162     -0.1973
    205  CA        43.1910  102.0090   34.9590 C.3   162  PHE162      0.1639
    206  C         42.9210  103.1190   33.9670 C.2   162  PHE162      0.2290
    207  O         43.2890  104.2800   34.2120 O.2   162  PHE162     -0.2864
    208  CB        44.0400  100.8940   34.3210 C.3   162  PHE162      0.0560
    209  CG        45.4270  101.3210   33.8940 C.ar  162  PHE162     -0.0200
    210  CD1       46.4800  101.3830   34.8240 C.ar  162  PHE162     -0.0042
    211  CD2       45.7070  101.6140   32.5510 C.ar  162  PHE162     -0.0042
    212  CE1       47.7890  101.7610   34.4300 C.ar  162  PHE162     -0.0003
    213  CE2       47.0140  101.9880   32.1430 C.ar  162  PHE162     -0.0003
    214  CZ        48.0560  102.0560   33.0930 C.ar  162  PHE162     -0.0000
    215  N         43.5720  108.2070   40.9080 N.3   171  TRP171     -0.1241
    216  CA        43.3410  106.8310   41.3180 C.3   171  TRP171      0.1605
    217  C         42.1050  106.6830   42.1990 C.2   171  TRP171      0.2264
    218  O         41.5850  105.5700   42.3510 O.2   171  TRP171     -0.2867
    219  CB        44.5650  106.2420   42.0330 C.3   171  TRP171      0.0550
    220  CG        45.8250  106.1990   41.1730 C.ar  171  TRP171      0.0003
    221  CD1       47.0280  106.7850   41.4570 C.ar  171  TRP171      0.0946
    222  CD2       45.9960  105.5350   39.8970 C.ar  171  TRP171      0.0152
    223  NE1       47.9310  106.5380   40.4380 N.ar  171  TRP171     -0.2442
    224  CE2       47.3300  105.7740   39.4750 C.ar  171  TRP171      0.0810
    225  CE3       45.1510  104.7700   39.0700 C.ar  171  TRP171      0.0012
    226  CZ2       47.8400  105.2760   38.2660 C.ar  171  TRP171      0.0191
    227  CZ3       45.6590  104.2840   37.8550 C.ar  171  TRP171      0.0001
    228  CH2       46.9880  104.5340   37.4720 C.ar  171  TRP171      0.0015
    229  N         38.1540  101.2100   41.4760 N.3   175  VAL175     -0.1231
    230  CA        37.3050  100.3870   42.3320 C.3   175  VAL175      0.1678
    231  C         38.1190   99.8860   43.5410 C.2   175  VAL175      0.2434
    232  O         39.2800   99.4820   43.3660 O.2   175  VAL175     -0.2733
    233  CB        36.7390   99.1580   41.5460 C.3   175  VAL175      0.0265
    234  CG1       35.8640   98.2580   42.4390 C.3   175  VAL175      0.0020
    235  CG2       35.9790   99.5950   40.2680 C.3   175  VAL175      0.0020
    236  N         37.5140   99.9030   44.7660 N.am  176  PRO176     -0.2718
    237  CA        38.1740   99.3330   45.9680 C.3   176  PRO176      0.1535
    238  C         38.0860   97.8260   45.9840 C.2   176  PRO176      0.2599
    239  O         37.1330   97.2570   45.4330 O.2   176  PRO176     -0.2715
    240  CB        37.3320   99.8990   47.1300 C.3   176  PRO176      0.0310
    241  CG        35.9510  100.1220   46.5330 C.3   176  PRO176      0.0237
    242  CD        36.1930  100.4960   45.0790 C.3   176  PRO176      0.0939
    243  N         39.0280   97.1690   46.6580 N.am  177  TYR177     -0.1960
    244  CA        38.9440   95.7360   46.8330 C.3   177  TYR177      0.1771
    245  C         38.1870   95.3750   48.1100 C.2   177  TYR177      0.2620
    246  O         38.7590   95.3830   49.2100 O.2   177  TYR177     -0.2715
    247  CB        40.3440   95.0840   46.8010 C.3   177  TYR177      0.0574
    248  CG        41.1460   95.4880   45.5740 C.ar  177  TYR177     -0.0198
    249  CD1       42.2400   96.3360   45.6700 C.ar  177  TYR177     -0.0009
    250  CD2       40.7840   95.0290   44.3020 C.ar  177  TYR177     -0.0009
    251  CE1       42.9810   96.7090   44.5290 C.ar  177  TYR177      0.0417
    252  CE2       41.5100   95.4020   43.1580 C.ar  177  TYR177      0.0417
    253  CZ        42.5980   96.2440   43.2790 C.ar  177  TYR177      0.1957
    254  OH        43.2860   96.6190   42.1450 O.3   177  TYR177     -0.2866
    255  N         36.9120   95.0330   47.9550 N.am  178  GLY178     -0.1940
    256  CA        36.0980   94.5380   49.0560 C.3   178  GLY178      0.2014
    257  C         34.7900   94.0400   48.5120 C.2   178  GLY178      0.2638
    258  O         34.3190   94.5180   47.4720 O.2   178  GLY178     -0.2714
    259  N         34.1970   93.0930   49.2120 N.am  179  ILE179     -0.1977
    260  CA        32.9420   92.5030   48.8080 C.3   179  ILE179      0.1596
    261  C         31.8610   93.5900   48.8100 C.2   179  ILE179      0.2287
    262  O         31.4150   94.0140   47.7410 O.2   179  ILE179     -0.2864
    263  CB        32.6200   91.2730   49.6750 C.3   179  ILE179      0.0276
    264  CG1       33.7690   90.2550   49.5940 C.3   179  ILE179      0.0022
    265  CG2       31.2830   90.6310   49.2940 C.3   179  ILE179      0.0022
    266  CD1       34.0850   89.6970   48.1350 C.3   179  ILE179      0.0001
    267  N         32.8350   97.2000   46.8830 N.3   182  HIS182     -0.1241
    268  CA        32.7970   97.3160   45.3890 C.3   182  HIS182      0.1621
    269  C         31.3510   97.4940   44.8910 C.2   182  HIS182      0.2264
    270  O         31.1170   98.1990   43.9380 O.2   182  HIS182     -0.2867
    271  CB        33.6530   96.2340   44.6530 C.3   182  HIS182      0.0745
    272  CG        32.9180   95.0170   44.1570 C.ar  182  HIS182      0.0817
    273  ND1       32.3560   94.0670   44.9900 N.ar  182  HIS182     -0.2268
    274  CD2       32.7700   94.5340   42.8870 C.ar  182  HIS182      0.1154
    275  CE1       31.8510   93.0790   44.2520 C.ar  182  HIS182      0.1986
    276  NE2       32.0910   93.3340   42.9710 N.ar  182  HIS182     -0.2212
@<TRIPOS>BOND
     1   191   190    1
     2   189   188    1
     3   189   190    1
     4   188   185    1
     5   213   211   ar
     6   213   214   ar
     7   185   186    1
     8   185   184    1
     9   169   168   ar
    10   169   167   ar
    11   186   187    2
    12   211   209   ar
    13   184   172   am
    14   170   171    1
    15   168   166   ar
    16   214   212   ar
    17   167   165   ar
    18   182   180   ar
    19   182   183   ar
    20   180   177   ar
    21   172   171    1
    22   172   173    2
    23   171   174    1
    24   209   208    1
    25   209   210   ar
    26   206   207    2
    27   206   205    1
    28   174   175    1
    29   192   193    1
    30   166   164   ar
    31   208   205    1
    32   212   210   ar
    33   165   164   ar
    34   183   181   ar
    35   177   175   ar
    36   177   179   ar
    37   162   161    2
    38   175   176   ar
    39   205   204    1
    40   164   163    1
    41   204   202   am
    42   193   196    1
    43   193   194    1
    44   197   198    1
    45   197   196    1
    46   197   199    1
    47   181   179   ar
    48   179   178   ar
    49   161   160    1
    50   176   178   ar
    51   163   160    1
    52   200   194   am
    53   200   201    1
    54   160   159    1
    55   194   195    2
    56   202   201    1
    57   202   203    2
    58   154   153    2
    59   228   227   ar
    60   228   226   ar
    61   159   153   am
    62   227   225   ar
    63   148   150   ar
    64   148   146   ar
    65   153   152    1
    66   226   224   ar
    67   150   149   ar
    68   146   145   ar
    69   143   142    2
    70   225   222   ar
    71   111   110   ar
    72   111   109   ar
    73   110   108   ar
    74   224   222   ar
    75   224   223   ar
    76   152   155    1
    77   152   151    1
    78   156   157    1
    79   156   155    1
    80   149   147   ar
    81   137   136    2
    82   158   157    1
    83   222   220   ar
    84   145   147   ar
    85   145   144    1
    86   142   141    1
    87   109   107   ar
    88   141   144    1
    89   141   140    1
    90   235   233    1
    91   223   221   ar
    92   108   106   ar
    93   136   140   am
    94   136   135    1
    95   215   216    1
    96   220   221   ar
    97   220   219    1
    98   216   219    1
    99   216   217    1
   100   229   230    1
   101   107   106   ar
   102   233   230    1
   103   233   234    1
   104   138   135    1
   105   138   139    1
   106   106   105    1
   107   125   123   ar
   108   125   124   ar
   109   135   134    1
   110   254   253    1
   111   217   218    2
   112   230   231    1
   113   123   121   ar
   114   124   122   ar
   115   133   131    1
   116   101   102    1
   117   274   276   ar
   118   274   272   ar
   119   129   128    2
   120   276   275   ar
   121   105   102    1
   122   252   253   ar
   123   252   250   ar
   124    14    12   ar
   125    14    13   ar
   126   253   251   ar
   127    12    10   ar
   128    13    11   ar
   129   232   231    2
   130    10     8   ar
   131    10     9   ar
   132    11     8   ar
   133     8     6   ar
   134     9     7   ar
   135     7     6   ar
   136     6     5    1
   137     5     2    1
   138   231   236   am
   139   102   103    1
   140   121   119   ar
   141   121   120   ar
   142   122   119   ar
   143   131   130    1
   144   131   132    1
   145   270   269    2
   146   128   127    1
   147   272   271    1
   148   272   273   ar
   149   130   127    1
   150   127   126    1
   151   275   273   ar
   152   250   248   ar
   153   119   117   ar
   154   251   249   ar
   155   120   118   ar
   156   271   268    1
   157   236   242    1
   158   236   237    1
   159   115   114    2
   160     2     1    1
   161     2     3    1
   162   269   268    1
   163   103   104    2
   164   242   241    1
   165   268   267    1
   166   239   238    2
   167   126   114   am
   168   248   249   ar
   169   248   247    1
   170   114   113    1
   171   117   118   ar
   172   117   116    1
   173   237   238    1
   174   237   240    1
   175     3    15   am
   176     3     4    2
   177   238   243   am
   178    15    16    1
   179   241   240    1
   180   243   244    1
   181    19    16    1
   182    19    20    1
   183   247   244    1
   184   244   245    1
   185   116   113    1
   186   113   112    1
   187    16    17    1
   188    21    20   ar
   189    21    23   ar
   190    44    42    1
   191   258   257    2
   192    20    22   ar
   193   262   261    2
   194    42    41    1
   195   255   245   am
   196   255   256    1
   197    23    25   ar
   198   245   246    2
   199   266   264    1
   200    17    26   am
   201    17    18    2
   202    22    24   ar
   203   257   256    1
   204   257   259   am
   205    26    27    1
   206   260   261    1
   207   260   259    1
   208   260   263    1
   209    25    24   ar
   210    34    32   ar
   211    34    36   ar
   212    41    43    1
   213    41    38    1
   214   265   263    1
   215    32    31   ar
   216   264   263    1
   217    37    38    1
   218    36    35   ar
   219    27    30    1
   220    27    28    1
   221    31    30    1
   222    31    33   ar
   223    38    39    1
   224    28    29    2
   225    35    33   ar
   226    39    45   am
   227    39    40    2
   228    45    46    1
   229    67    65   ar
   230    67    66   ar
   231    65    63   ar
   232    66    64   ar
   233    46    47    1
   234    63    62   ar
   235    64    62   ar
   236    49    47   am
   237    49    50    1
   238    62    61    1
   239    47    48    2
   240    96    95    2
   241    55    53    1
   242    53    50    1
   243    53    54    1
   244   100    98    1
   245    98    99    1
   246    98    97    1
   247    50    51    1
   248    95    94    1
   249    56    54    1
   250    61    58    1
   251    57    58    1
   252    51    52    2
   253    97    94    1
   254    58    59    1
   255    94    93    1
   256    92    90   ar
   257    92    91   ar
   258    90    88   ar
   259    91    89   ar
   260    59    68   am
   261    59    60    2
   262    74    76   ar
   263    74    73   ar
   264    68    69    1
   265    76    77   ar
   266    88    87   ar
   267    89    87   ar
   268    73    72    1
   269    73    75   ar
   270    85    84    2
   271    72    69    1
   272    77    79   ar
   273    77    75   ar
   274    69    70    1
   275    87    86    1
   276    79    81   ar
   277    75    78   ar
   278    70    71    2
   279    84    83    1
   280    86    83    1
   281    83    82    1
   282    81    80   ar
   283    78    80   ar
