@<TRIPOS>MOLECULE
tmp/2j8dC01.pdb
 176 173 0 0 0
SMALL
GASTEIGER

@<TRIPOS>ATOM
      1  N         19.9730   83.8420   27.4540 N.3   214  LEU214     -0.1231
      2  CA        18.9610   83.3240   26.5330 C.3   214  LEU214      0.1693
      3  C         19.6800   82.3350   25.5930 C.2   214  LEU214      0.2591
      4  O         19.2320   81.1910   25.4140 O.2   214  LEU214     -0.2718
      5  CB        18.3550   84.5040   25.7080 C.3   214  LEU214      0.0284
      6  CG        17.6200   84.1830   24.3870 C.3   214  LEU214      0.0019
      7  CD1       16.5030   83.1880   24.5640 C.3   214  LEU214      0.0001
      8  CD2       17.1050   85.4490   23.7720 C.3   214  LEU214      0.0001
      9  N         20.8020   82.7800   25.0260 N.am  215  LEU215     -0.1980
     10  CA        21.4900   81.9790   23.9760 C.3   215  LEU215      0.1596
     11  C         22.1270   80.6950   24.5180 C.2   215  LEU215      0.2287
     12  O         22.0070   79.6140   23.9110 O.2   215  LEU215     -0.2864
     13  CB        22.4950   82.8530   23.2090 C.3   215  LEU215      0.0297
     14  CG        23.2220   82.2110   21.9800 C.3   215  LEU215      0.0022
     15  CD1       22.1660   81.5370   21.0310 C.3   215  LEU215      0.0001
     16  CD2       24.0600   83.2480   21.2460 C.3   215  LEU215      0.0001
     17  N         19.3060   78.3280   25.1540 N.3   218  MET218     -0.1230
     18  CA        18.8930   77.7570   23.8220 C.3   218  MET218      0.1702
     19  C         19.8890   76.6790   23.3530 C.2   218  MET218      0.2592
     20  O         19.4850   75.5290   23.0930 O.2   218  MET218     -0.2718
     21  CB        18.7690   78.8860   22.7940 C.3   218  MET218      0.0401
     22  CG        17.5150   79.7630   22.9650 C.3   218  MET218      0.0596
     23  SD        17.6450   81.2050   21.8890 S.3   218  MET218     -0.1393
     24  CE        17.7820   80.3500   20.2580 C.3   218  MET218      0.0692
     25  N         21.1740   77.0250   23.3560 N.am  219  HIS219     -0.1976
     26  CA        22.2440   76.1670   22.7720 C.3   219  HIS219      0.1656
     27  C         22.4500   74.9300   23.6240 C.2   219  HIS219      0.2291
     28  O         22.4300   73.7710   23.1280 O.2   219  HIS219     -0.2864
     29  CB        23.5720   76.9520   22.5620 C.3   219  HIS219      0.0771
     30  CG        24.6780   76.1260   21.9390 C.ar  219  HIS219      0.0820
     31  ND1       24.5220   75.4630   20.7350 N.ar  219  HIS219     -0.2267
     32  CD2       25.9320   75.8070   22.3790 C.ar  219  HIS219      0.1154
     33  CE1       25.6340   74.7930   20.4520 C.ar  219  HIS219      0.1986
     34  NE2       26.5060   74.9660   21.4390 N.ar  219  HIS219     -0.2212
     35  N         19.5170   72.7450   23.2270 N.3   222  THR222     -0.1203
     36  CA        19.4800   72.1420   21.8490 C.3   222  THR222      0.1994
     37  C         20.4140   70.9650   21.7480 C.2   222  THR222      0.2617
     38  O         20.0140   69.8870   21.3740 O.2   222  THR222     -0.2717
     39  CB        19.8370   73.1820   20.7860 C.3   222  THR222      0.1784
     40  OG1       18.8750   74.2240   20.8680 O.3   222  THR222     -0.2211
     41  CG2       19.7430   72.5670   19.3440 C.3   222  THR222      0.0376
     42  N         21.6670   71.1680   22.1390 N.am  223  ILE223     -0.1979
     43  CA        22.6700   70.1130   22.1180 C.3   223  ILE223      0.1595
     44  C         22.2840   68.9230   22.9520 C.2   223  ILE223      0.2287
     45  O         22.4260   67.7740   22.5190 O.2   223  ILE223     -0.2864
     46  CB        24.0640   70.6800   22.4820 C.3   223  ILE223      0.0276
     47  CG1       24.5190   71.6920   21.4210 C.3   223  ILE223      0.0022
     48  CG2       25.0900   69.5790   22.5880 C.3   223  ILE223      0.0022
     49  CD1       24.5540   71.0730   19.9790 C.3   223  ILE223      0.0001
     50  N         22.8020   67.7520   13.7780 N.3   245  ALA245     -0.1245
     51  CA        22.8910   69.1470   13.3410 C.3   245  ALA245      0.1562
     52  C         21.6670   69.5730   12.5220 C.2   245  ALA245      0.2260
     53  O         21.2250   70.7110   12.6150 O.2   245  ALA245     -0.2867
     54  CB        24.1710   69.3740   12.5160 C.3   245  ALA245      0.0290
     55  N         18.5110   69.9230   15.0240 N.3   248  ALA248     -0.1231
     56  CA        18.7430   71.1730   15.7860 C.3   248  ALA248      0.1694
     57  C         18.3900   72.3900   14.9340 C.2   248  ALA248      0.2591
     58  O         17.6810   73.2970   15.3900 O.2   248  ALA248     -0.2718
     59  CB        20.1750   71.2560   16.2190 C.3   248  ALA248      0.0304
     60  N         18.9270   72.4400   13.7070 N.am  249  ALA249     -0.1980
     61  CA        18.6240   73.5600   12.7770 C.3   249  ALA249      0.1597
     62  C         17.1270   73.6470   12.4840 C.2   249  ALA249      0.2287
     63  O         16.5190   74.7220   12.4760 O.2   249  ALA249     -0.2864
     64  CB        19.4410   73.3790   11.4390 C.3   249  ALA249      0.0319
     65  N         14.7530   75.0980   15.3260 N.3   252  TRP252     -0.1241
     66  CA        14.7270   76.5410   15.3320 C.3   252  TRP252      0.1605
     67  C         14.0800   77.1550   14.0710 C.2   252  TRP252      0.2264
     68  O         13.3830   78.1820   14.1490 O.2   252  TRP252     -0.2867
     69  CB        16.1440   77.0880   15.5830 C.3   252  TRP252      0.0550
     70  CG        16.5380   76.7330   17.0290 C.ar  252  TRP252      0.0003
     71  CD1       17.4560   75.8010   17.4470 C.ar  252  TRP252      0.0946
     72  CD2       15.9320   77.2760   18.2270 C.ar  252  TRP252      0.0152
     73  NE1       17.4750   75.7510   18.8590 N.ar  252  TRP252     -0.2442
     74  CE2       16.5510   76.6540   19.3400 C.ar  252  TRP252      0.0810
     75  CE3       14.9210   78.2420   18.4550 C.ar  252  TRP252      0.0012
     76  CZ2       16.1640   76.9390   20.6860 C.ar  252  TRP252      0.0191
     77  CZ3       14.5360   78.5280   19.8000 C.ar  252  TRP252      0.0001
     78  CH2       15.1780   77.8780   20.8870 C.ar  252  TRP252      0.0015
     79  N         11.6780   75.8450   12.2380 N.3   254  TRP254     -0.1227
     80  CA        10.2460   75.7180   12.4470 C.3   254  TRP254      0.1737
     81  C          9.6400   76.6170   13.5320 C.2   254  TRP254      0.2596
     82  O          8.4610   77.0580   13.4440 O.2   254  TRP254     -0.2718
     83  CB         9.8740   74.2590   12.7000 C.3   254  TRP254      0.0564
     84  CG        10.2200   73.3580   11.5350 C.ar  254  TRP254      0.0003
     85  CD1       10.7200   73.7470   10.3080 C.ar  254  TRP254      0.0946
     86  CD2       10.1390   71.9200   11.5020 C.ar  254  TRP254      0.0152
     87  NE1       10.9300   72.6190    9.5120 N.ar  254  TRP254     -0.2442
     88  CE2       10.5810   71.4990   10.2210 C.ar  254  TRP254      0.0810
     89  CE3        9.7020   70.9440   12.4230 C.ar  254  TRP254      0.0012
     90  CZ2       10.6260   70.1480    9.8520 C.ar  254  TRP254      0.0191
     91  CZ3        9.7300   69.6260   12.0550 C.ar  254  TRP254      0.0001
     92  CH2       10.1860   69.2310   10.7570 C.ar  254  TRP254      0.0015
     93  N         10.4440   76.8890   14.5640 N.am  255  THR255     -0.1939
     94  CA        10.0090   77.7510   15.7030 C.3   255  THR255      0.2028
     95  C         10.0280   79.2180   15.3500 C.2   255  THR255      0.2642
     96  O          9.0070   79.8990   15.4340 O.2   255  THR255     -0.2714
     97  CB        10.9300   77.4410   16.9590 C.3   255  THR255      0.1808
     98  OG1       10.7120   76.0770   17.3460 O.3   255  THR255     -0.2208
     99  CG2       10.6370   78.3720   18.1950 C.3   255  THR255      0.0379
    100  N         11.1930   79.7180   14.9510 N.am  256  MET256     -0.1976
    101  CA        11.3400   81.1270   14.7410 C.3   256  MET256      0.1605
    102  C         11.6910   81.5590   13.3420 C.2   256  MET256      0.2287
    103  O         11.9830   82.7450   13.1470 O.2   256  MET256     -0.2864
    104  CB        12.3850   81.7190   15.6990 C.3   256  MET256      0.0413
    105  CG        13.7370   81.0410   15.6570 C.3   256  MET256      0.0598
    106  SD        14.9040   81.8660   16.8010 S.3   256  MET256     -0.1393
    107  CE        16.4540   81.1530   16.2840 C.3   256  MET256      0.0692
    108  N         14.2510   80.8720   11.2410 N.3   258  PHE258     -0.1227
    109  CA        15.6440   80.8600   10.7720 C.3   258  PHE258      0.1736
    110  C         16.4610   80.0240   11.7420 C.2   258  PHE258      0.2595
    111  O         15.9250   79.6220   12.7530 O.2   258  PHE258     -0.2718
    112  CB        16.2110   82.2830   10.6090 C.3   258  PHE258      0.0547
    113  CG        16.5310   83.0100   11.9230 C.ar  258  PHE258     -0.0202
    114  CD1       15.5140   83.4780   12.7480 C.ar  258  PHE258     -0.0042
    115  CD2       17.8710   83.2670   12.2840 C.ar  258  PHE258     -0.0042
    116  CE1       15.8190   84.1610   13.9690 C.ar  258  PHE258     -0.0003
    117  CE2       18.1830   83.9320   13.4790 C.ar  258  PHE258     -0.0003
    118  CZ        17.1500   84.3690   14.3280 C.ar  258  PHE258     -0.0000
    119  N         17.7260   79.7610   11.4450 N.am  259  ASN259     -0.1960
    120  CA        18.4740   78.8080   12.2380 C.3   259  ASN259      0.1819
    121  C         19.9460   79.0380   12.0180 C.2   259  ASN259      0.2621
    122  O         20.3460   79.9210   11.2710 O.2   259  ASN259     -0.2715
    123  CB        18.0810   77.3820   11.8780 C.3   259  ASN259      0.1195
    124  CG        18.3060   77.1030   10.3770 C.2   259  ASN259      0.2630
    125  OD1       17.3970   77.2860    9.5670 O.2   259  ASN259     -0.2716
    126  ND2       19.5510   76.8270   10.0090 N.am  259  ASN259     -0.0877
    127  N         20.7830   78.2740   12.7050 N.am  260  ALA260     -0.1963
    128  CA        22.1930   78.4650   12.6190 C.3   260  ALA260      0.1728
    129  C         22.7760   77.1880   12.0130 C.2   260  ALA260      0.2617
    130  O         22.0400   76.2880   11.5780 O.2   260  ALA260     -0.2715
    131  CB        22.7930   78.7200   14.0520 C.3   260  ALA260      0.0334
    132  N         24.0980   77.1110   12.0120 N.am  261  THR261     -0.1937
    133  CA        24.7820   75.8980   11.7460 C.3   261  THR261      0.2028
    134  C         25.5600   75.4980   12.9990 C.2   261  THR261      0.2642
    135  O         25.7310   76.2960   13.9100 O.2   261  THR261     -0.2714
    136  CB        25.8170   76.0700   10.5650 C.3   261  THR261      0.1808
    137  OG1       26.7440   77.1200   10.8620 O.3   261  THR261     -0.2208
    138  CG2       25.1090   76.4100    9.2520 C.3   261  THR261      0.0379
    139  N         26.0670   74.2760   13.0000 N.am  262  MET262     -0.1976
    140  CA        26.9310   73.7940   14.0850 C.3   262  MET262      0.1605
    141  C         28.1570   74.6640   14.3000 C.2   262  MET262      0.2287
    142  O         28.5080   74.9630   15.4540 O.2   262  MET262     -0.2864
    143  CB        27.3000   72.3230   13.8540 C.3   262  MET262      0.0413
    144  CG        27.8980   71.6390   15.1070 C.3   262  MET262      0.0598
    145  SD        26.6430   71.4720   16.4450 S.3   262  MET262     -0.1393
    146  CE        25.6760   70.1030   16.0700 C.3   262  MET262      0.0692
    147  N         26.6330   78.7870   15.0980 N.3   265  ILE265     -0.1245
    148  CA        26.0580   79.0120   16.4430 C.3   265  ILE265      0.1561
    149  C         27.1690   79.4570   17.4270 C.2   265  ILE265      0.2260
    150  O         26.9460   80.3350   18.2420 O.2   265  ILE265     -0.2867
    151  CB        25.2180   77.8100   16.9730 C.3   265  ILE265      0.0252
    152  CG1       24.3740   78.2220   18.2070 C.3   265  ILE265      0.0019
    153  CG2       26.0660   76.5370   17.2870 C.3   265  ILE265      0.0019
    154  CD1       23.6080   79.5330   18.0250 C.3   265  ILE265      0.0001
    155  N         27.6690   83.1340   16.8740 N.3   268  TRP268     -0.1241
    156  CA        26.6530   83.8890   17.6120 C.3   268  TRP268      0.1605
    157  C         27.0610   83.9000   19.1120 C.2   268  TRP268      0.2264
    158  O         27.0580   84.9400   19.7150 O.2   268  TRP268     -0.2867
    159  CB        25.2890   83.2480   17.4770 C.3   268  TRP268      0.0550
    160  CG        24.5510   83.5290   16.1770 C.ar  268  TRP268      0.0003
    161  CD1       24.3320   82.6340   15.1530 C.ar  268  TRP268      0.0946
    162  CD2       23.8670   84.7410   15.8010 C.ar  268  TRP268      0.0152
    163  NE1       23.5580   83.2200   14.1700 N.ar  268  TRP268     -0.2442
    164  CE2       23.2730   84.5140   14.5330 C.ar  268  TRP268      0.0810
    165  CE3       23.6920   85.9900   16.4130 C.ar  268  TRP268      0.0012
    166  CZ2       22.5200   85.5040   13.8530 C.ar  268  TRP268      0.0191
    167  CZ3       22.9340   86.9840   15.7450 C.ar  268  TRP268      0.0001
    168  CH2       22.3580   86.7270   14.4620 C.ar  268  TRP268      0.0015
    169  N         27.8260   87.3090   21.2330 N.3   272  MET272     -0.1245
    170  CA        26.8140   87.6510   22.2490 C.3   272  MET272      0.1570
    171  C         27.5280   87.9130   23.6010 C.2   272  MET272      0.2261
    172  O         27.3500   88.9390   24.2030 O.2   272  MET272     -0.2867
    173  CB        25.7990   86.4990   22.4030 C.3   272  MET272      0.0387
    174  CG        24.6210   86.7800   23.4020 C.3   272  MET272      0.0595
    175  SD        23.5230   88.0600   22.8300 S.3   272  MET272     -0.1393
    176  CE        22.3860   87.1150   21.8040 C.3   272  MET272      0.0692
@<TRIPOS>BOND
     1   138   136    1
     2    87    88   ar
     3    87    85   ar
     4   125   124    2
     5    90    88   ar
     6    90    92   ar
     7   126   124   am
     8    88    86   ar
     9    85    84   ar
    10   124   123    1
    11   136   137    1
    12   136   133    1
    13   112   109    1
    14   112   113    1
    15    92    91   ar
    16   109   108    1
    17   109   110    1
    18   122   121    2
    19    64    61    1
    20   119   110   am
    21   119   120    1
    22    86    84   ar
    23    86    89   ar
    24    84    83    1
    25   130   129    2
    26   110   111    2
    27   133   132    1
    28   133   134    1
    29   123   120    1
    30   113   115   ar
    31   113   114   ar
    32   132   129   am
    33   129   128    1
    34   121   120    1
    35   121   127   am
    36    91    89   ar
    37    79    80    1
    38   115   117   ar
    39    80    83    1
    40    80    81    1
    41    63    62    2
    42    62    61    1
    43    54    51    1
    44    52    53    2
    45    52    51    1
    46   128   127    1
    47   128   131    1
    48   114   116   ar
    49    61    60    1
    50   134   139   am
    51   134   135    2
    52   139   140    1
    53   103   102    2
    54    51    50    1
    55   102   101    1
    56    82    81    2
    57   117   118   ar
    58    81    93   am
    59    60    57   am
    60   166   168   ar
    61   166   164   ar
    62   143   140    1
    63   143   144    1
    64   116   118   ar
    65    67    68    2
    66    67    66    1
    67   140   141    1
    68   163   164   ar
    69   163   161   ar
    70   141   142    2
    71   168   167   ar
    72   164   162   ar
    73    93    94    1
    74   101   100    1
    75   101   104    1
    76    57    58    2
    77    57    56    1
    78   100    95   am
    79    55    56    1
    80   147   148    1
    81   144   145    1
    82   161   160   ar
    83    65    66    1
    84    66    69    1
    85    95    96    2
    86    95    94    1
    87    69    70    1
    88   105   104    1
    89   105   106    1
    90    94    97    1
    91   167   165   ar
    92    56    59    1
    93   162   160   ar
    94   162   165   ar
    95   146   145    1
    96   160   159    1
    97   107   106    1
    98   148   151    1
    99   148   149    1
   100   155   156    1
   101    97    98    1
   102    97    99    1
   103   151   153    1
   104   151   152    1
   105    70    71   ar
   106    70    72   ar
   107   149   150    2
   108    71    73   ar
   109   159   156    1
   110   156   157    1
   111   154   152    1
   112    72    75   ar
   113    72    74   ar
   114    75    77   ar
   115    73    74   ar
   116   157   158    2
   117    74    76   ar
   118    41    39    1
   119    77    78   ar
   120    49    47    1
   121    24    23    1
   122    33    31   ar
   123    33    34   ar
   124    76    78   ar
   125    31    30   ar
   126    39    40    1
   127    39    36    1
   128    15    14    1
   129   169   170    1
   130    16    14    1
   131    38    37    2
   132    47    46    1
   133    34    32   ar
   134    37    36    1
   135    37    42   am
   136   176   175    1
   137    36    35    1
   138    23    22    1
   139    30    32   ar
   140    30    29    1
   141    14    13    1
   142    43    42    1
   143    43    46    1
   144    43    44    1
   145   170   173    1
   146   170   171    1
   147   173   174    1
   148    46    48    1
   149    45    44    2
   150    29    26    1
   151    26    25    1
   152    26    27    1
   153    21    22    1
   154    21    18    1
   155   175   174    1
   156    20    19    2
   157    28    27    2
   158    13    10    1
   159    19    25   am
   160    19    18    1
   161   171   172    2
   162     8     6    1
   163    18    17    1
   164    12    11    2
   165    10    11    1
   166    10     9    1
   167     6     7    1
   168     6     5    1
   169     9     3   am
   170     4     3    2
   171     3     2    1
   172     5     2    1
   173     2     1    1
