@<TRIPOS>MOLECULE
tmp/2j8dA02.pdb
 79 76 0 0 0
SMALL
GASTEIGER

@<TRIPOS>ATOM
      1  N         29.6680  107.5400   19.1860 N.3    16  ALA16      -0.1245
      2  CA        29.9850  106.1670   19.5710 C.3    16  ALA16       0.1562
      3  C         28.7940  105.2460   19.3990 C.2    16  ALA16       0.2260
      4  O         28.9290  104.1250   18.8940 O.2    16  ALA16      -0.2867
      5  CB        30.5280  106.1120   20.9930 C.3    16  ALA16       0.0290
      6  N         27.8940  104.7930   15.6850 N.3    19  SER19      -0.1202
      7  CA        28.8740  103.8410   15.1970 C.3    19  SER19       0.2020
      8  C         28.6000  102.4160   15.6100 C.2    19  SER19       0.2618
      9  O         28.7780  101.4750   14.7940 O.2    19  SER19      -0.2717
     10  CB        30.2690  104.2430   15.6290 C.3    19  SER19       0.2103
     11  OG        30.5130  105.5340   15.0880 O.3    19  SER19      -0.2182
     12  N         28.1700  102.2390   16.8660 N.am   20  PHE20      -0.1975
     13  CA        27.8870  100.9040   17.3490 C.3    20  PHE20       0.1639
     14  C         26.7650  100.2180   16.5840 C.2    20  PHE20       0.2290
     15  O         26.9050   99.0330   16.2550 O.2    20  PHE20      -0.2864
     16  CB        27.5840  100.8340   18.8480 C.3    20  PHE20       0.0560
     17  CG        27.2990   99.4420   19.2950 C.ar   20  PHE20      -0.0200
     18  CD1       28.3440   98.5620   19.5360 C.ar   20  PHE20      -0.0042
     19  CD2       26.0100   98.9810   19.3440 C.ar   20  PHE20      -0.0042
     20  CE1       28.0990   97.2720   19.8900 C.ar   20  PHE20      -0.0003
     21  CE2       25.7550   97.6730   19.6980 C.ar   20  PHE20      -0.0003
     22  CZ        26.8070   96.8270   19.9780 C.ar   20  PHE20      -0.0000
     23  N         25.7920  100.7600   13.5590 N.3    22  ILE22      -0.1231
     24  CA        26.3200  100.4410   12.2290 C.3    22  ILE22       0.1692
     25  C         27.1790   99.1880   12.3300 C.2    22  ILE22       0.2592
     26  O         26.9810   98.2400   11.5570 O.2    22  ILE22      -0.2718
     27  CB        27.1000  101.6280   11.6120 C.3    22  ILE22       0.0266
     28  CG1       26.1270  102.7640   11.2920 C.3    22  ILE22       0.0019
     29  CG2       27.8900  101.1950   10.3150 C.3    22  ILE22       0.0020
     30  CD1       26.8540  104.0340   11.0130 C.3    22  ILE22       0.0001
     31  N         28.0890   99.1470   13.3010 N.am   23  PHE23      -0.1976
     32  CA        28.8720   97.9520   13.5010 C.3    23  PHE23       0.1639
     33  C         27.9730   96.7360   13.7400 C.2    23  PHE23       0.2290
     34  O         28.2000   95.6730   13.1660 O.2    23  PHE23      -0.2864
     35  CB        29.9080   98.1150   14.6290 C.3    23  PHE23       0.0560
     36  CG        30.3790   96.8020   15.1930 C.ar   23  PHE23      -0.0200
     37  CD1       31.4380   96.1220   14.6050 C.ar   23  PHE23      -0.0042
     38  CD2       29.7300   96.2230   16.3010 C.ar   23  PHE23      -0.0042
     39  CE1       31.8700   94.8810   15.1280 C.ar   23  PHE23      -0.0003
     40  CE2       30.1550   94.9850   16.8190 C.ar   23  PHE23      -0.0003
     41  CZ        31.2230   94.3190   16.2390 C.ar   23  PHE23      -0.0000
     42  N         24.8560   96.1250   12.8530 N.3    25  ALA25      -0.1231
     43  CA        24.1440   95.7220   11.6270 C.3    25  ALA25       0.1694
     44  C         25.0840   94.8790   10.7510 C.2    25  ALA25       0.2593
     45  O         24.6780   93.8340   10.2570 O.2    25  ALA25      -0.2718
     46  CB        23.6600   96.9420   10.8710 C.3    25  ALA25       0.0304
     47  N         26.3250   95.3310   10.6090 N.am   26  GLY26      -0.1942
     48  CA        27.4010   94.5970    9.9190 C.3    26  GLY26       0.2014
     49  C         27.6960   93.2430   10.5490 C.2    26  GLY26       0.2638
     50  O         27.8230   92.2170    9.8590 O.2    26  GLY26      -0.2714
     51  N         27.7490   93.2100   11.8860 N.am   27  LEU27      -0.1977
     52  CA        27.9920   91.9460   12.5520 C.3    27  LEU27       0.1596
     53  C         26.8750   90.9320   12.3000 C.2    27  LEU27       0.2287
     54  O         27.1310   89.7520   12.0290 O.2    27  LEU27      -0.2864
     55  CB        28.2150   92.1750   14.0550 C.3    27  LEU27       0.0297
     56  CG        28.5100   90.9340   14.8600 C.3    27  LEU27       0.0022
     57  CD1       29.8690   90.3710   14.4460 C.3    27  LEU27       0.0001
     58  CD2       28.4730   91.3640   16.3700 C.3    27  LEU27       0.0001
     59  N         27.2170   89.5630    8.7860 N.3    30  TYR30      -0.1241
     60  CA        28.2660   88.5340    8.8690 C.3    30  TYR30       0.1605
     61  C         27.7790   87.2330    9.4890 C.2    30  TYR30       0.2264
     62  O         27.9650   86.1280    8.9090 O.2    30  TYR30      -0.2867
     63  CB        29.4750   89.1060    9.5980 C.3    30  TYR30       0.0534
     64  CG        30.4840   88.0740   10.1130 C.ar   30  TYR30      -0.0201
     65  CD1       31.4450   87.4920    9.2530 C.ar   30  TYR30      -0.0009
     66  CD2       30.4860   87.6960   11.4560 C.ar   30  TYR30      -0.0009
     67  CE1       32.3660   86.5680    9.7270 C.ar   30  TYR30       0.0417
     68  CE2       31.3950   86.7720   11.9410 C.ar   30  TYR30       0.0417
     69  CZ        32.3350   86.2210   11.0770 C.ar   30  TYR30       0.1957
     70  OH        33.2170   85.3110   11.5730 O.3    30  TYR30      -0.2866
     71  N         34.5420   78.5020    2.3580 N.3    62  LYS62      -0.1245
     72  CA        35.7290   78.3450    3.1910 C.3    62  LYS62       0.1561
     73  C         36.0680   76.8910    3.1330 C.2    62  LYS62       0.2260
     74  O         35.2090   76.0970    2.8860 O.2    62  LYS62      -0.2867
     75  CB        35.4440   78.7610    4.6590 C.3    62  LYS62       0.0271
     76  CG        34.5510   77.7430    5.4360 C.3    62  LYS62       0.0035
     77  CD        34.1490   78.2870    6.8550 C.3    62  LYS62       0.0206
     78  CE        35.3040   78.2040    7.8630 C.3    62  LYS62       0.1093
     79  NZ        34.8730   78.7680    9.2160 N.3    62  LYS62      -0.1314
@<TRIPOS>BOND
     1    71    72    1
     2    74    73    2
     3    73    72    1
     4    72    75    1
     5    75    76    1
     6    76    77    1
     7    77    78    1
     8    78    79    1
     9    59    60    1
    10    60    61    1
    11    60    63    1
    12    62    61    2
    13    65    67   ar
    14    65    64   ar
    15    63    64    1
    16    67    69   ar
    17    50    49    2
    18    48    49    1
    19    48    47    1
    20    64    66   ar
    21    45    44    2
    22    29    27    1
    23    49    51   am
    24    47    44   am
    25    44    43    1
    26    46    43    1
    27    30    28    1
    28    69    70    1
    29    69    68   ar
    30    28    27    1
    31    66    68   ar
    32    26    25    2
    33    27    24    1
    34    43    42    1
    35    51    52    1
    36    54    53    2
    37    24    25    1
    38    24    23    1
    39    53    52    1
    40    25    31   am
    41    52    55    1
    42    34    33    2
    43    31    32    1
    44    32    33    1
    45    32    35    1
    46    55    56    1
    47    57    56    1
    48    37    39   ar
    49    37    36   ar
    50    35    36    1
    51     9     8    2
    52    56    58    1
    53    11    10    1
    54    39    41   ar
    55    36    38   ar
    56     7     8    1
    57     7    10    1
    58     7     6    1
    59     8    12   am
    60    41    40   ar
    61    15    14    2
    62    38    40   ar
    63    14    13    1
    64    12    13    1
    65    13    16    1
    66    16    17    1
    67     4     3    2
    68     1     2    1
    69    17    19   ar
    70    17    18   ar
    71    19    21   ar
    72     3     2    1
    73    18    20   ar
    74     2     5    1
    75    21    22   ar
    76    20    22   ar
