@<TRIPOS>MOLECULE
tmp/2j8dC08.pdb
 243 237 0 0 0
SMALL
GASTEIGER

@<TRIPOS>ATOM
      1  N         48.5370   89.6770   44.8850 N.3    66  TRP66      -0.1241
      2  CA        47.4100   90.6100   44.8700 C.3    66  TRP66       0.1605
      3  C         46.4580   90.2140   45.9770 C.2    66  TRP66       0.2264
      4  O         46.0290   91.0390   46.7510 O.2    66  TRP66      -0.2867
      5  CB        46.6860   90.5660   43.5170 C.3    66  TRP66       0.0550
      6  CG        45.3080   91.2050   43.4900 C.ar   66  TRP66       0.0003
      7  CD1       45.0280   92.5310   43.4890 C.ar   66  TRP66       0.0946
      8  CD2       44.0470   90.5240   43.4120 C.ar   66  TRP66       0.0152
      9  NE1       43.6700   92.7260   43.4300 N.ar   66  TRP66      -0.2442
     10  CE2       43.0450   91.5090   43.3720 C.ar   66  TRP66       0.0810
     11  CE3       43.6720   89.1750   43.3790 C.ar   66  TRP66       0.0012
     12  CZ2       41.6770   91.1970   43.3100 C.ar   66  TRP66       0.0191
     13  CZ3       42.3080   88.8600   43.3110 C.ar   66  TRP66       0.0001
     14  CH2       41.3290   89.8770   43.2630 C.ar   66  TRP66       0.0015
     15  N         47.8630   92.8380   40.3810 N.3   122  MET122     -0.1245
     16  CA        46.6860   92.3680   39.6560 C.3   122  MET122      0.1570
     17  C         46.9080   92.5690   38.1540 C.2   122  MET122      0.2261
     18  O         46.5610   91.7120   37.3680 O.2   122  MET122     -0.2867
     19  CB        45.4270   93.1270   40.0710 C.3   122  MET122      0.0387
     20  CG        44.1490   92.3690   39.6930 C.3   122  MET122      0.0595
     21  SD        42.7140   93.4170   39.9680 S.3   122  MET122     -0.1393
     22  CE        41.4250   92.1960   39.8300 C.3   122  MET122      0.0692
     23  N         49.2620   89.8930   36.9440 N.3   125  ALA125     -0.1231
     24  CA        48.5990   88.5950   36.9670 C.3   125  ALA125      0.1694
     25  C         47.6840   88.4020   35.7370 C.2   125  ALA125      0.2591
     26  O         47.7110   87.3410   35.0750 O.2   125  ALA125     -0.2718
     27  CB        47.7900   88.4290   38.2560 C.3   125  ALA125      0.0304
     28  N         46.8880   89.4230   35.4530 N.am  126  VAL126     -0.1980
     29  CA        45.8590   89.3470   34.4080 C.3   126  VAL126      0.1595
     30  C         46.5490   89.3590   33.0320 C.2   126  VAL126      0.2287
     31  O         46.3350   88.4620   32.2320 O.2   126  VAL126     -0.2864
     32  CB        44.8120   90.4860   34.5360 C.3   126  VAL126      0.0276
     33  CG1       43.9210   90.5700   33.2820 C.3   126  VAL126      0.0022
     34  CG2       43.9230   90.2830   35.8080 C.3   126  VAL126      0.0022
     35  N         38.8590   86.8450   25.8050 N.3   150  PHE150     -0.1241
     36  CA        39.4050   87.2640   27.1130 C.3   150  PHE150      0.1605
     37  C         39.7420   88.7380   27.0880 C.2   150  PHE150      0.2264
     38  O         39.4590   89.4870   28.0430 O.2   150  PHE150     -0.2867
     39  CB        40.6030   86.3900   27.4800 C.3   150  PHE150      0.0534
     40  CG        41.1760   86.6330   28.8850 C.ar  150  PHE150     -0.0203
     41  CD1       40.4090   87.2140   29.9100 C.ar  150  PHE150     -0.0042
     42  CD2       42.4750   86.2110   29.1770 C.ar  150  PHE150     -0.0042
     43  CE1       40.9630   87.4070   31.2040 C.ar  150  PHE150     -0.0003
     44  CE2       43.0380   86.4200   30.4470 C.ar  150  PHE150     -0.0003
     45  CZ        42.2760   87.0130   31.4530 C.ar  150  PHE150     -0.0000
     46  N         36.7720   90.9290   28.1390 N.3   153  ALA153     -0.1231
     47  CA        36.6090   91.0240   29.6110 C.3   153  ALA153      0.1694
     48  C         37.6800   91.9830   30.1770 C.2   153  ALA153      0.2591
     49  O         37.3740   92.8880   30.9670 O.2   153  ALA153     -0.2718
     50  CB        36.7050   89.6600   30.2370 C.3   153  ALA153      0.0304
     51  N         38.9210   91.8230   29.7130 N.am  154  ILE154     -0.1980
     52  CA        40.0540   92.6680   30.1230 C.3   154  ILE154      0.1595
     53  C         39.8050   94.1370   29.8590 C.2   154  ILE154      0.2287
     54  O         40.2000   95.0080   30.6590 O.2   154  ILE154     -0.2864
     55  CB        41.3680   92.2310   29.4360 C.3   154  ILE154      0.0276
     56  CG1       41.8910   90.9480   30.0790 C.3   154  ILE154      0.0022
     57  CG2       42.4030   93.3550   29.4550 C.3   154  ILE154      0.0022
     58  CD1       43.0430   90.2450   29.3210 C.3   154  ILE154      0.0001
     59  N         36.8590   95.8310   29.9790 N.3   156  LEU156     -0.1231
     60  CA        36.0500   96.4480   31.0530 C.3   156  LEU156      0.1693
     61  C         36.8840   96.6050   32.3410 C.2   156  LEU156      0.2592
     62  O         36.8380   97.6550   32.9870 O.2   156  LEU156     -0.2718
     63  CB        34.7940   95.6450   31.3490 C.3   156  LEU156      0.0284
     64  CG        33.9410   96.1620   32.5320 C.3   156  LEU156      0.0019
     65  CD1       33.4740   97.6140   32.3350 C.3   156  LEU156      0.0001
     66  CD2       32.7550   95.2600   32.7320 C.3   156  LEU156      0.0001
     67  N         37.6320   95.5720   32.7030 N.am  157  TRP157     -0.1976
     68  CA        38.5370   95.6260   33.8470 C.3   157  TRP157      0.1640
     69  C         39.5610   96.7760   33.7730 C.2   157  TRP157      0.2290
     70  O         39.6890   97.5590   34.7290 O.2   157  TRP157     -0.2864
     71  CB        39.2010   94.2630   33.9970 C.3   157  TRP157      0.0576
     72  CG        40.3850   94.2080   34.9310 C.ar  157  TRP157      0.0006
     73  CD1       40.3650   94.1140   36.3100 C.ar  157  TRP157      0.0946
     74  CD2       41.7620   94.1790   34.5470 C.ar  157  TRP157      0.0152
     75  NE1       41.6600   94.0430   36.7960 N.ar  157  TRP157     -0.2442
     76  CE2       42.5340   94.0910   35.7390 C.ar  157  TRP157      0.0810
     77  CE3       42.4250   94.2260   33.3090 C.ar  157  TRP157      0.0012
     78  CZ2       43.9340   94.0550   35.7240 C.ar  157  TRP157      0.0191
     79  CZ3       43.8120   94.1880   33.2960 C.ar  157  TRP157      0.0001
     80  CH2       44.5550   94.1140   34.5000 C.ar  157  TRP157      0.0015
     81  N         37.7140  100.1690   34.1630 N.3   160  LEU160     -0.1245
     82  CA        37.3210  100.4060   35.5580 C.3   160  LEU160      0.1561
     83  C         38.5020  100.8000   36.4480 C.2   160  LEU160      0.2260
     84  O         38.4210  101.8050   37.1400 O.2   160  LEU160     -0.2867
     85  CB        36.6100   99.1840   36.1510 C.3   160  LEU160      0.0270
     86  CG        35.1970   98.8830   35.6670 C.3   160  LEU160      0.0019
     87  CD1       34.8880   97.4030   35.9160 C.3   160  LEU160      0.0001
     88  CD2       34.1540   99.8140   36.2610 C.3   160  LEU160      0.0001
     89  N         30.4710  101.0840   45.6620 N.3   185  TRP185     -0.1227
     90  CA        31.1130  101.8090   44.5470 C.3   185  TRP185      0.1737
     91  C         30.2240  101.8020   43.2790 C.2   185  TRP185      0.2596
     92  O         30.0070  102.8200   42.6710 O.2   185  TRP185     -0.2718
     93  CB        32.5020  101.2270   44.2320 C.3   185  TRP185      0.0564
     94  CG        33.2550  101.9940   43.1550 C.ar  185  TRP185      0.0003
     95  CD1       34.1420  103.0150   43.3400 C.ar  185  TRP185      0.0946
     96  CD2       33.1520  101.8080   41.7240 C.ar  185  TRP185      0.0152
     97  NE1       34.5970  103.4800   42.1270 N.ar  185  TRP185     -0.2442
     98  CE2       34.0120  102.7510   41.1210 C.ar  185  TRP185      0.0810
     99  CE3       32.4290  100.9200   40.9050 C.ar  185  TRP185      0.0012
    100  CZ2       34.1610  102.8550   39.7200 C.ar  185  TRP185      0.0191
    101  CZ3       32.5760  101.0210   39.5040 C.ar  185  TRP185      0.0001
    102  CH2       33.4420  101.9790   38.9370 C.ar  185  TRP185      0.0015
    103  N         29.6790  100.6410   42.9430 N.am  186  THR186     -0.1939
    104  CA        28.8240  100.4580   41.7500 C.3   186  THR186      0.2028
    105  C         27.5240  101.2640   41.8240 C.2   186  THR186      0.2642
    106  O         27.1730  101.9900   40.9070 O.2   186  THR186     -0.2714
    107  CB        28.5520   98.9450   41.5970 C.3   186  THR186      0.1808
    108  OG1       29.8040   98.2780   41.4570 O.3   186  THR186     -0.2208
    109  CG2       27.6830   98.6400   40.3980 C.3   186  THR186      0.0379
    110  N         26.8110  101.1310   42.9360 N.am  187  ASN187     -0.1971
    111  CA        25.6500  101.9530   43.2120 C.3   187  ASN187      0.1688
    112  C         25.9940  103.4150   43.1450 C.2   187  ASN187      0.2292
    113  O         25.3410  104.1600   42.4150 O.2   187  ASN187     -0.2864
    114  CB        25.0380  101.5600   44.5630 C.3   187  ASN187      0.1181
    115  CG        23.8710  102.4380   44.9700 C.2   187  ASN187      0.2629
    116  OD1       23.8340  102.9390   46.0990 O.2   187  ASN187     -0.2716
    117  ND2       22.9000  102.5860   44.1010 N.am  187  ASN187     -0.0877
    118  N         28.5620  104.9080   41.6220 N.3   189  PHE189     -0.1227
    119  CA        28.9140  105.2860   40.2460 C.3   189  PHE189      0.1736
    120  C         27.6610  105.7130   39.4650 C.2   189  PHE189      0.2596
    121  O         27.6440  106.7540   38.8130 O.2   189  PHE189     -0.2718
    122  CB        29.6260  104.1140   39.5490 C.3   189  PHE189      0.0547
    123  CG        30.2390  104.4960   38.2130 C.ar  189  PHE189     -0.0202
    124  CD1       29.4420  104.6040   37.0680 C.ar  189  PHE189     -0.0042
    125  CD2       31.5900  104.7620   38.1190 C.ar  189  PHE189     -0.0042
    126  CE1       30.0030  104.9830   35.8400 C.ar  189  PHE189     -0.0003
    127  CE2       32.1690  105.1350   36.9010 C.ar  189  PHE189     -0.0003
    128  CZ        31.3740  105.2410   35.7680 C.ar  189  PHE189     -0.0000
    129  N         26.5970  104.9260   39.5660 N.am  190  SER190     -0.1952
    130  CA        25.3590  105.1850   38.8290 C.3   190  SER190      0.1924
    131  C         24.6460  106.4430   39.3190 C.2   190  SER190      0.2314
    132  O         24.1770  107.2720   38.5000 O.2   190  SER190     -0.2863
    133  CB        24.4440  103.9860   38.9370 C.3   190  SER190      0.2116
    134  OG        23.1750  104.2780   38.3890 O.3   190  SER190     -0.2180
    135  N         22.2120  108.1430   36.6810 N.3   195  ASN195     -0.1225
    136  CA        21.4350  106.9100   36.5150 C.3   195  ASN195      0.1785
    137  C         21.8860  106.1590   35.2420 C.2   195  ASN195      0.2597
    138  O         21.5190  106.5290   34.1160 O.2   195  ASN195     -0.2718
    139  CB        19.9340  107.1990   36.5050 C.3   195  ASN195      0.1169
    140  CG        19.0780  105.9440   36.4830 C.2   195  ASN195      0.2627
    141  OD1       17.8640  106.0350   36.6310 O.2   195  ASN195     -0.2716
    142  ND2       19.6860  104.7730   36.3090 N.am  195  ASN195     -0.0877
    143  N         22.6970  105.1260   35.4580 N.am  196  LEU196     -0.1966
    144  CA        23.3280  104.3710   34.3910 C.3   196  LEU196      0.1728
    145  C         22.2930  103.7480   33.4540 C.2   196  LEU196      0.2616
    146  O         22.6060  103.4260   32.3070 O.2   196  LEU196     -0.2715
    147  CB        24.2550  103.3060   34.9690 C.3   196  LEU196      0.0311
    148  CG        25.6640  103.2740   34.4080 C.3   196  LEU196      0.0022
    149  CD1       26.2670  104.6480   34.2450 C.3   196  LEU196      0.0001
    150  CD2       26.5420  102.4500   35.2830 C.3   196  LEU196      0.0001
    151  N         21.0540  103.5910   33.8960 N.am  197  PHE197     -0.1974
    152  CA        20.1430  103.0430   32.9230 C.3   197  PHE197      0.1639
    153  C         19.7200  103.9740   31.7640 C.2   197  PHE197      0.2290
    154  O         19.0770  103.5480   30.8030 O.2   197  PHE197     -0.2864
    155  CB        19.1380  102.0160   33.4810 C.3   197  PHE197      0.0560
    156  CG        18.0640  102.5560   34.2860 C.ar  197  PHE197     -0.0200
    157  CD1       17.3380  103.6890   33.8650 C.ar  197  PHE197     -0.0042
    158  CD2       17.6730  101.8600   35.4470 C.ar  197  PHE197     -0.0042
    159  CE1       16.2130  104.2190   34.6490 C.ar  197  PHE197     -0.0003
    160  CE2       16.5960  102.3250   36.2240 C.ar  197  PHE197     -0.0003
    161  CZ        15.8400  103.5480   35.8330 C.ar  197  PHE197     -0.0000
    162  N         22.3350  105.3550   30.1650 N.3   199  ASN199     -0.1240
    163  CA        23.5280  105.1740   29.3710 C.3   199  ASN199      0.1653
    164  C         23.2010  104.0880   28.3130 C.2   199  ASN199      0.2266
    165  O         22.9610  102.9490   28.6620 O.2   199  ASN199     -0.2867
    166  CB        24.6630  104.7170   30.2760 C.3   199  ASN199      0.1155
    167  CG        25.9930  104.5540   29.5370 C.2   199  ASN199      0.2627
    168  OD1       26.0370  104.4240   28.2980 O.2   199  ASN199     -0.2716
    169  ND2       27.0780  104.5380   30.2890 N.am  199  ASN199     -0.0877
    170  N         25.0760  100.9260   28.5320 N.3   202  HIS202     -0.1241
    171  CA        24.6620  100.0640   29.6870 C.3   202  HIS202      0.1621
    172  C         23.4540   99.2750   29.2640 C.2   202  HIS202      0.2264
    173  O         23.3660   98.0970   29.5340 O.2   202  HIS202     -0.2867
    174  CB        24.3950  100.9170   30.9710 C.3   202  HIS202      0.0745
    175  CG        24.0790  100.1210   32.2180 C.ar  202  HIS202      0.0817
    176  ND1       22.7910   99.9200   32.6570 N.ar  202  HIS202     -0.2268
    177  CD2       24.8830   99.5210   33.1380 C.ar  202  HIS202      0.1154
    178  CE1       22.8080   99.2100   33.7800 C.ar  202  HIS202      0.1986
    179  NE2       24.0680   98.9460   34.1000 N.ar  202  HIS202     -0.2212
    180  N         24.7960   96.5870   27.0210 N.3   205  SER205     -0.1202
    181  CA        25.5200   95.5890   27.8180 C.3   205  SER205      0.2020
    182  C         24.5160   94.6580   28.4800 C.2   205  SER205      0.2618
    183  O         24.7190   93.4440   28.5500 O.2   205  SER205     -0.2717
    184  CB        26.4280   96.3080   28.8540 C.3   205  SER205      0.2103
    185  OG        27.2650   95.3580   29.4840 O.3   205  SER205     -0.2182
    186  N         23.4010   95.1970   28.9630 N.am  206  ILE206     -0.1979
    187  CA        22.4590   94.2850   29.5710 C.3   206  ILE206      0.1595
    188  C         21.6770   93.4070   28.5540 C.2   206  ILE206      0.2287
    189  O         21.3930   92.2250   28.8260 O.2   206  ILE206     -0.2864
    190  CB        21.4720   94.9180   30.6690 C.3   206  ILE206      0.0276
    191  CG1       20.1080   95.0390   30.1730 C.3   206  ILE206      0.0022
    192  CG2       21.9450   96.1020   31.5610 C.3   206  ILE206      0.0022
    193  CD1       19.4460   93.9400   30.6910 C.3   206  ILE206      0.0001
    194  N         23.9300   90.6870   28.0620 N.3   209  LEU209     -0.1231
    195  CA        24.0610   89.8000   29.2490 C.3   209  LEU209      0.1693
    196  C         22.8480   88.8790   29.3770 C.2   209  LEU209      0.2592
    197  O         22.9660   87.6570   29.5560 O.2   209  LEU209     -0.2718
    198  CB        24.2580   90.6400   30.5300 C.3   209  LEU209      0.0284
    199  CG        24.5050   89.7460   31.7640 C.3   209  LEU209      0.0019
    200  CD1       25.8700   89.0100   31.7020 C.3   209  LEU209      0.0001
    201  CD2       24.4270   90.6260   33.0190 C.3   209  LEU209      0.0001
    202  N         21.6630   89.4490   29.2490 N.am  210  TYR210     -0.1976
    203  CA        20.4710   88.6220   29.2130 C.3   210  TYR210      0.1639
    204  C         20.5410   87.7230   27.9400 C.2   210  TYR210      0.2290
    205  O         20.1940   86.5530   27.9940 O.2   210  TYR210     -0.2864
    206  CB        19.2460   89.5170   29.0330 C.3   210  TYR210      0.0560
    207  CG        18.8740   90.4510   30.1860 C.ar  210  TYR210     -0.0198
    208  CD1       19.4820   90.3370   31.4700 C.ar  210  TYR210     -0.0009
    209  CD2       17.8750   91.4020   30.0100 C.ar  210  TYR210     -0.0009
    210  CE1       19.0790   91.1910   32.5430 C.ar  210  TYR210      0.0417
    211  CE2       17.4720   92.2350   31.0490 C.ar  210  TYR210      0.0417
    212  CZ        18.0900   92.1340   32.3140 C.ar  210  TYR210      0.1957
    213  OH        17.6820   92.9940   33.3210 O.3   210  TYR210     -0.2866
    214  N         28.9920   91.9450   25.7830 N.3   276  VAL276     -0.1231
    215  CA        28.6400   92.3580   27.1710 C.3   276  VAL276      0.1692
    216  C         29.6630   93.3640   27.6560 C.2   276  VAL276      0.2592
    217  O         29.3500   94.5270   27.9010 O.2   276  VAL276     -0.2718
    218  CB        28.6220   91.1540   28.0950 C.3   276  VAL276      0.0266
    219  CG1       28.4730   91.5980   29.6460 C.3   276  VAL276      0.0020
    220  CG2       27.5030   90.2460   27.6940 C.3   276  VAL276      0.0020
    221  N         30.9130   92.9320   27.7160 N.am  277  THR277     -0.1953
    222  CA        31.9770   93.7830   28.2260 C.3   277  THR277      0.1897
    223  C         32.5270   94.7900   27.2130 C.2   277  THR277      0.2313
    224  O         33.0750   95.8270   27.6020 O.2   277  THR277     -0.2863
    225  CB        33.0870   92.9320   28.7870 C.3   277  THR277      0.1794
    226  OG1       33.3970   91.9060   27.8460 O.3   277  THR277     -0.2208
    227  CG2       32.5830   92.2170   30.1130 C.3   277  THR277      0.0378
    228  N         29.8860   97.4870   27.5290 N.3   280  GLY280     -0.1225
    229  CA        30.0750   97.8680   28.9440 C.3   280  GLY280      0.1811
    230  C         31.2680   98.7730   29.1300 C.2   280  GLY280      0.2280
    231  O         31.1150   99.9030   29.5710 O.2   280  GLY280     -0.2866
    232  N         30.6550  102.1550   27.7470 N.3   283  GLY283     -0.1210
    233  CA        29.6670  102.9480   28.4640 C.3   283  GLY283      0.1956
    234  C         30.2780  103.5370   29.7220 C.2   283  GLY283      0.2611
    235  O         30.0180  104.6880   30.0650 O.2   283  GLY283     -0.2717
    236  N         31.0950  102.7650   30.4250 N.am  284  ILE284     -0.1979
    237  CA        31.7090  103.3750   31.5940 C.3   284  ILE284      0.1595
    238  C         32.9070  104.2890   31.2910 C.2   284  ILE284      0.2287
    239  O         33.0740  105.3210   31.9480 O.2   284  ILE284     -0.2864
    240  CB        31.8670  102.4200   32.8160 C.3   284  ILE284      0.0276
    241  CG1       33.1860  101.7670   32.8540 C.3   284  ILE284      0.0022
    242  CG2       30.5940  101.6120   33.2060 C.3   284  ILE284      0.0022
    243  CD1       33.9590  102.5670   33.8230 C.3   284  ILE284      0.0001
@<TRIPOS>BOND
     1   214   215    1
     2    35    36    1
     3   180   181    1
     4    37    36    1
     5    37    38    2
     6    36    39    1
     7   215   216    1
     8   215   218    1
     9   223   224    2
    10   223   222    1
    11    39    40    1
    12   228   229    1
    13   216   221   am
    14   216   217    2
    15   220   218    1
    16   221   222    1
    17   232   233    1
    18   181   182    1
    19   181   184    1
    20   226   225    1
    21   204   205    2
    22   204   203    1
    23   194   195    1
    24   218   219    1
    25    46    47    1
    26   222   225    1
    27   168   167    2
    28   164   165    2
    29   164   163    1
    30   233   234    1
    31   182   183    2
    32   182   186   am
    33   170   171    1
    34   188   189    2
    35   188   187    1
    36   225   227    1
    37   184   185    1
    38    40    42   ar
    39    40    41   ar
    40   229   230    1
    41   186   187    1
    42   206   203    1
    43   206   207    1
    44   230   231    2
    45    42    44   ar
    46   203   202    1
    47   202   196   am
    48   195   196    1
    49   195   198    1
    50   172   173    2
    51   172   171    1
    52    58    56    1
    53   163   162    1
    54   163   166    1
    55   196   197    2
    56    55    57    1
    57    55    56    1
    58    55    52    1
    59   167   166    1
    60   167   169   am
    61   187   190    1
    62    47    48    1
    63    47    50    1
    64   171   174    1
    65    51    52    1
    66    51    48   am
    67   234   235    2
    68   234   236   am
    69    53    52    1
    70    53    54    2
    71    41    43   ar
    72    59    60    1
    73   209   207   ar
    74   209   211   ar
    75   191   190    1
    76   191   193    1
    77    48    49    2
    78   207   208   ar
    79   236   237    1
    80    44    45   ar
    81   198   199    1
    82   190   192    1
    83   154   153    2
    84   174   175    1
    85   211   212   ar
    86    60    63    1
    87    60    61    1
    88    43    45   ar
    89   238   237    1
    90   238   239    2
    91    63    64    1
    92   208   210   ar
    93   237   240    1
    94   200   199    1
    95   153   152    1
    96   199   201    1
    97   175   176   ar
    98   175   177   ar
    99    31    30    2
   100   146   145    2
   101   212   210   ar
   102   212   213    1
   103    65    64    1
   104    61    67   am
   105    61    62    2
   106    64    66    1
   107   176   178   ar
   108    67    68    1
   109   240   241    1
   110   240   242    1
   111   241   243    1
   112   152   155    1
   113   152   151    1
   114    30    29    1
   115   177   179   ar
   116    33    32    1
   117    79    77   ar
   118    79    80   ar
   119    77    74   ar
   120   145   151   am
   121   145   144    1
   122   155   156    1
   123    69    68    1
   124    69    70    2
   125   178   179   ar
   126    68    71    1
   127   157   156   ar
   128   157   159   ar
   129    71    72    1
   130   138   137    2
   131    81    82    1
   132   149   148    1
   133   156   158   ar
   134   144   147    1
   135   144   143    1
   136    29    32    1
   137    29    28    1
   138   148   147    1
   139   148   150    1
   140    80    78   ar
   141    32    34    1
   142    74    72   ar
   143    74    76   ar
   144   159   161   ar
   145    72    73   ar
   146    26    25    2
   147   137   143   am
   148   137   136    1
   149   158   160   ar
   150    28    25   am
   151    82    85    1
   152    82    83    1
   153    86    87    1
   154    86    85    1
   155    86    88    1
   156    78    76   ar
   157    25    24    1
   158    76    75   ar
   159   128   126   ar
   160   128   127   ar
   161   161   160   ar
   162   126   124   ar
   163   142   140   am
   164    73    75   ar
   165    83    84    2
   166   140   139    1
   167   140   141    2
   168   139   136    1
   169   136   135    1
   170   127   125   ar
   171    23    24    1
   172    24    27    1
   173   124   123   ar
   174    18    17    2
   175   125   123   ar
   176    17    16    1
   177   123   122    1
   178   134   133    1
   179   132   131    2
   180   121   120    2
   181   130   133    1
   182   130   131    1
   183   130   129    1
   184   102   101   ar
   185   102   100   ar
   186   120   129   am
   187   120   119    1
   188   101    99   ar
   189   122   119    1
   190    16    19    1
   191    16    15    1
   192    20    21    1
   193    20    19    1
   194   100    98   ar
   195    22    21    1
   196   119   118    1
   197   109   107    1
   198    99    96   ar
   199   106   105    2
   200    98    96   ar
   201    98    97   ar
   202   108   107    1
   203   107   104    1
   204    96    94   ar
   205   104   105    1
   206   104   103    1
   207   105   110   am
   208    97    95   ar
   209   113   112    2
   210    92    91    2
   211   110   111    1
   212   103    91   am
   213   112   111    1
   214    94    95   ar
   215    94    93    1
   216   111   114    1
   217    14    12   ar
   218    14    13   ar
   219    91    90    1
   220    12    10   ar
   221    13    11   ar
   222    10     8   ar
   223    10     9   ar
   224    11     8   ar
   225     8     6   ar
   226     9     7   ar
   227     7     6   ar
   228     6     5    1
   229     5     2    1
   230   117   115   am
   231    93    90    1
   232    90    89    1
   233   114   115    1
   234     2     1    1
   235     2     3    1
   236   115   116    2
   237     3     4    2
