@<TRIPOS>MOLECULE
tmp/2j8dC07.pdb
 158 159 0 0 0
SMALL
GASTEIGER

@<TRIPOS>ATOM
      1  N         48.5370   89.6770   44.8850 N.3    66  TRP66      -0.1227
      2  CA        47.4100   90.6100   44.8700 C.3    66  TRP66       0.1737
      3  C         46.4580   90.2140   45.9770 C.2    66  TRP66       0.2595
      4  O         46.0290   91.0390   46.7510 O.2    66  TRP66      -0.2718
      5  CB        46.6860   90.5660   43.5170 C.3    66  TRP66       0.0564
      6  CG        45.3080   91.2050   43.4900 C.ar   66  TRP66       0.0003
      7  CD1       45.0280   92.5310   43.4890 C.ar   66  TRP66       0.0946
      8  CD2       44.0470   90.5240   43.4120 C.ar   66  TRP66       0.0152
      9  NE1       43.6700   92.7260   43.4300 N.ar   66  TRP66      -0.2442
     10  CE2       43.0450   91.5090   43.3720 C.ar   66  TRP66       0.0810
     11  CE3       43.6720   89.1750   43.3790 C.ar   66  TRP66       0.0012
     12  CZ2       41.6770   91.1970   43.3100 C.ar   66  TRP66       0.0191
     13  CZ3       42.3080   88.8600   43.3110 C.ar   66  TRP66       0.0001
     14  CH2       41.3290   89.8770   43.2630 C.ar   66  TRP66       0.0015
     15  N         46.1430   88.9300   46.0310 N.am   67  PHE67      -0.1976
     16  CA        45.2020   88.3830   46.9790 C.3    67  PHE67       0.1639
     17  C         45.6830   88.6090   48.4230 C.2    67  PHE67       0.2290
     18  O         44.8850   88.9370   49.3050 O.2    67  PHE67      -0.2864
     19  CB        45.0550   86.8950   46.6850 C.3    67  PHE67       0.0560
     20  CG        44.0010   86.1950   47.5040 C.ar   67  PHE67      -0.0200
     21  CD1       42.6470   86.4370   47.2830 C.ar   67  PHE67      -0.0042
     22  CD2       44.3690   85.2510   48.4630 C.ar   67  PHE67      -0.0042
     23  CE1       41.6710   85.7730   48.0200 C.ar   67  PHE67      -0.0003
     24  CE2       43.3920   84.5700   49.2110 C.ar   67  PHE67      -0.0003
     25  CZ        42.0380   84.8420   48.9870 C.ar   67  PHE67      -0.0000
     26  N         43.1730   93.3510   55.3170 N.3    74  PHE74      -0.1241
     27  CA        41.9460   92.9600   55.9850 C.3    74  PHE74       0.1605
     28  C         42.2460   92.5540   57.4470 C.2    74  PHE74       0.2264
     29  O         41.5410   92.9910   58.3730 O.2    74  PHE74      -0.2867
     30  CB        41.2350   91.8360   55.2130 C.3    74  PHE74       0.0534
     31  CG        40.4050   92.3240   54.0250 C.ar   74  PHE74      -0.0203
     32  CD1       40.6690   93.5520   53.4110 C.ar   74  PHE74      -0.0042
     33  CD2       39.3740   91.5390   53.5180 C.ar   74  PHE74      -0.0042
     34  CE1       39.8980   94.0060   52.3380 C.ar   74  PHE74      -0.0003
     35  CE2       38.6080   91.9820   52.4160 C.ar   74  PHE74      -0.0003
     36  CZ        38.8790   93.2180   51.8430 C.ar   74  PHE74      -0.0000
     37  N         34.3720   90.2010   57.4440 N.3    89  LEU89      -0.1231
     38  CA        34.9970   89.8290   56.1660 C.3    89  LEU89       0.1693
     39  C         34.4730   90.6350   54.9630 C.2    89  LEU89       0.2592
     40  O         35.2570   91.1720   54.1800 O.2    89  LEU89      -0.2718
     41  CB        34.8010   88.3240   55.9250 C.3    89  LEU89       0.0284
     42  CG        35.6300   87.7160   54.7900 C.3    89  LEU89       0.0019
     43  CD1       37.1350   88.0040   54.9240 C.3    89  LEU89       0.0001
     44  CD2       35.3350   86.2470   54.7050 C.3    89  LEU89       0.0001
     45  N         33.1530   90.7520   54.8530 N.am   90  PHE90      -0.1976
     46  CA        32.5280   91.3920   53.6960 C.3    90  PHE90       0.1639
     47  C         32.5520   92.9040   53.7710 C.2    90  PHE90       0.2290
     48  O         32.2540   93.5890   52.7820 O.2    90  PHE90      -0.2864
     49  CB        31.1030   90.8790   53.5240 C.3    90  PHE90       0.0560
     50  CG        31.0210   89.4840   52.9570 C.ar   90  PHE90      -0.0200
     51  CD1       29.8040   88.9800   52.5040 C.ar   90  PHE90      -0.0042
     52  CD2       32.1510   88.6860   52.8450 C.ar   90  PHE90      -0.0042
     53  CE1       29.7130   87.6890   51.9720 C.ar   90  PHE90      -0.0003
     54  CE2       32.0720   87.4050   52.3290 C.ar   90  PHE90      -0.0003
     55  CZ        30.8480   86.9030   51.8930 C.ar   90  PHE90      -0.0000
     56  N         47.8630   92.8380   40.3810 N.3   122  MET122     -0.1245
     57  CA        46.6860   92.3680   39.6560 C.3   122  MET122      0.1570
     58  C         46.9080   92.5690   38.1540 C.2   122  MET122      0.2261
     59  O         46.5610   91.7120   37.3680 O.2   122  MET122     -0.2867
     60  CB        45.4270   93.1270   40.0710 C.3   122  MET122      0.0387
     61  CG        44.1490   92.3690   39.6930 C.3   122  MET122      0.0595
     62  SD        42.7140   93.4170   39.9680 S.3   122  MET122     -0.1393
     63  CE        41.4250   92.1960   39.8300 C.3   122  MET122      0.0692
     64  N         36.8590   95.8310   29.9790 N.3   156  LEU156     -0.1231
     65  CA        36.0500   96.4480   31.0530 C.3   156  LEU156      0.1693
     66  C         36.8840   96.6050   32.3410 C.2   156  LEU156      0.2592
     67  O         36.8380   97.6550   32.9870 O.2   156  LEU156     -0.2718
     68  CB        34.7940   95.6450   31.3490 C.3   156  LEU156      0.0284
     69  CG        33.9410   96.1620   32.5320 C.3   156  LEU156      0.0019
     70  CD1       33.4740   97.6140   32.3350 C.3   156  LEU156      0.0001
     71  CD2       32.7550   95.2600   32.7320 C.3   156  LEU156      0.0001
     72  N         37.6320   95.5720   32.7030 N.am  157  TRP157     -0.1976
     73  CA        38.5370   95.6260   33.8470 C.3   157  TRP157      0.1640
     74  C         39.5610   96.7760   33.7730 C.2   157  TRP157      0.2290
     75  O         39.6890   97.5590   34.7290 O.2   157  TRP157     -0.2864
     76  CB        39.2010   94.2630   33.9970 C.3   157  TRP157      0.0576
     77  CG        40.3850   94.2080   34.9310 C.ar  157  TRP157      0.0006
     78  CD1       40.3650   94.1140   36.3100 C.ar  157  TRP157      0.0946
     79  CD2       41.7620   94.1790   34.5470 C.ar  157  TRP157      0.0152
     80  NE1       41.6600   94.0430   36.7960 N.ar  157  TRP157     -0.2442
     81  CE2       42.5340   94.0910   35.7390 C.ar  157  TRP157      0.0810
     82  CE3       42.4250   94.2260   33.3090 C.ar  157  TRP157      0.0012
     83  CZ2       43.9340   94.0550   35.7240 C.ar  157  TRP157      0.0191
     84  CZ3       43.8120   94.1880   33.2960 C.ar  157  TRP157      0.0001
     85  CH2       44.5550   94.1140   34.5000 C.ar  157  TRP157      0.0015
     86  N         37.7140  100.1690   34.1630 N.3   160  LEU160     -0.1245
     87  CA        37.3210  100.4060   35.5580 C.3   160  LEU160      0.1561
     88  C         38.5020  100.8000   36.4480 C.2   160  LEU160      0.2260
     89  O         38.4210  101.8050   37.1400 O.2   160  LEU160     -0.2867
     90  CB        36.6100   99.1840   36.1510 C.3   160  LEU160      0.0270
     91  CG        35.1970   98.8830   35.6670 C.3   160  LEU160      0.0019
     92  CD1       34.8880   97.4030   35.9160 C.3   160  LEU160      0.0001
     93  CD2       34.1540   99.8140   36.2610 C.3   160  LEU160      0.0001
     94  N         38.1540  101.2100   41.4760 N.3   175  VAL175     -0.1245
     95  CA        37.3050  100.3870   42.3320 C.3   175  VAL175      0.1561
     96  C         38.1190   99.8860   43.5410 C.2   175  VAL175      0.2260
     97  O         39.2800   99.4820   43.3660 O.2   175  VAL175     -0.2867
     98  CB        36.7390   99.1580   41.5460 C.3   175  VAL175      0.0252
     99  CG1       35.8640   98.2580   42.4390 C.3   175  VAL175      0.0019
    100  CG2       35.9790   99.5950   40.2680 C.3   175  VAL175      0.0019
    101  N         34.1970   93.0930   49.2120 N.3   179  ILE179     -0.1231
    102  CA        32.9420   92.5030   48.8080 C.3   179  ILE179      0.1692
    103  C         31.8610   93.5900   48.8100 C.2   179  ILE179      0.2592
    104  O         31.4150   94.0140   47.7410 O.2   179  ILE179     -0.2718
    105  CB        32.6200   91.2730   49.6750 C.3   179  ILE179      0.0266
    106  CG1       33.7690   90.2550   49.5940 C.3   179  ILE179      0.0019
    107  CG2       31.2830   90.6310   49.2940 C.3   179  ILE179      0.0020
    108  CD1       34.0850   89.6970   48.1350 C.3   179  ILE179      0.0001
    109  N         31.4640   94.0840   49.9840 N.am  180  PHE180     -0.1976
    110  CA        30.4180   95.0990   50.0360 C.3   180  PHE180      0.1639
    111  C         30.8650   96.4220   49.4540 C.2   180  PHE180      0.2290
    112  O         30.0670   97.1010   48.7900 O.2   180  PHE180     -0.2864
    113  CB        29.8590   95.2990   51.4740 C.3   180  PHE180      0.0560
    114  CG        29.0730   94.1140   51.9860 C.ar  180  PHE180     -0.0200
    115  CD1       28.5960   93.1360   51.1040 C.ar  180  PHE180     -0.0042
    116  CD2       28.7800   93.9840   53.3490 C.ar  180  PHE180     -0.0042
    117  CE1       27.8770   92.0400   51.5560 C.ar  180  PHE180     -0.0003
    118  CE2       28.0590   92.9050   53.8070 C.ar  180  PHE180     -0.0003
    119  CZ        27.5930   91.9250   52.9200 C.ar  180  PHE180     -0.0000
    120  N         32.8350   97.2000   46.8830 N.3   182  HIS182     -0.1226
    121  CA        32.7970   97.3160   45.3890 C.3   182  HIS182      0.1752
    122  C         31.3510   97.4940   44.8910 C.2   182  HIS182      0.2595
    123  O         31.1170   98.1990   43.9380 O.2   182  HIS182     -0.2718
    124  CB        33.6530   96.2340   44.6530 C.3   182  HIS182      0.0759
    125  CG        32.9180   95.0170   44.1570 C.ar  182  HIS182      0.0818
    126  ND1       32.3560   94.0670   44.9900 N.ar  182  HIS182     -0.2268
    127  CD2       32.7700   94.5340   42.8870 C.ar  182  HIS182      0.1154
    128  CE1       31.8510   93.0790   44.2520 C.ar  182  HIS182      0.1986
    129  NE2       32.0910   93.3340   42.9710 N.ar  182  HIS182     -0.2212
    130  N         30.4090   96.8810   45.6060 N.am  183  LEU183     -0.1980
    131  CA        28.9800   97.0420   45.4140 C.3   183  LEU183      0.1596
    132  C         28.5300   98.4530   45.7380 C.2   183  LEU183      0.2287
    133  O         27.7920   99.0680   44.9490 O.2   183  LEU183     -0.2864
    134  CB        28.2450   96.0390   46.3080 C.3   183  LEU183      0.0297
    135  CG        27.8180   94.6230   45.9090 C.3   183  LEU183      0.0022
    136  CD1       28.5350   94.0130   44.7200 C.3   183  LEU183      0.0001
    137  CD2       27.8000   93.6840   47.0840 C.3   183  LEU183      0.0001
    138  N         30.4710  101.0840   45.6620 N.3   185  TRP185     -0.1227
    139  CA        31.1130  101.8090   44.5470 C.3   185  TRP185      0.1737
    140  C         30.2240  101.8020   43.2790 C.2   185  TRP185      0.2596
    141  O         30.0070  102.8200   42.6710 O.2   185  TRP185     -0.2718
    142  CB        32.5020  101.2270   44.2320 C.3   185  TRP185      0.0564
    143  CG        33.2550  101.9940   43.1550 C.ar  185  TRP185      0.0003
    144  CD1       34.1420  103.0150   43.3400 C.ar  185  TRP185      0.0946
    145  CD2       33.1520  101.8080   41.7240 C.ar  185  TRP185      0.0152
    146  NE1       34.5970  103.4800   42.1270 N.ar  185  TRP185     -0.2442
    147  CE2       34.0120  102.7510   41.1210 C.ar  185  TRP185      0.0810
    148  CE3       32.4290  100.9200   40.9050 C.ar  185  TRP185      0.0012
    149  CZ2       34.1610  102.8550   39.7200 C.ar  185  TRP185      0.0191
    150  CZ3       32.5760  101.0210   39.5040 C.ar  185  TRP185      0.0001
    151  CH2       33.4420  101.9790   38.9370 C.ar  185  TRP185      0.0015
    152  N         29.6790  100.6410   42.9430 N.am  186  THR186     -0.1953
    153  CA        28.8240  100.4580   41.7500 C.3   186  THR186      0.1897
    154  C         27.5240  101.2640   41.8240 C.2   186  THR186      0.2313
    155  O         27.1730  101.9900   40.9070 O.2   186  THR186     -0.2863
    156  CB        28.5520   98.9450   41.5970 C.3   186  THR186      0.1794
    157  OG1       29.8040   98.2780   41.4570 O.3   186  THR186     -0.2208
    158  CG2       27.6830   98.6400   40.3980 C.3   186  THR186      0.0378
@<TRIPOS>BOND
     1    64    65    1
     2    65    68    1
     3    65    66    1
     4    68    69    1
     5    70    69    1
     6    66    72   am
     7    66    67    2
     8    69    71    1
     9    72    73    1
    10    84    82   ar
    11    84    85   ar
    12    82    79   ar
    13    74    73    1
    14    74    75    2
    15    73    76    1
    16    76    77    1
    17    86    87    1
    18    85    83   ar
    19    79    77   ar
    20    79    81   ar
    21    77    78   ar
    22    87    90    1
    23    87    88    1
    24    91    92    1
    25    91    90    1
    26    91    93    1
    27    83    81   ar
    28    81    80   ar
    29    78    80   ar
    30    88    89    2
    31    59    58    2
    32    58    57    1
    33   151   150   ar
    34   151   149   ar
    35   150   148   ar
    36    57    60    1
    37    57    56    1
    38    61    62    1
    39    61    60    1
    40   149   147   ar
    41    63    62    1
    42   100    98    1
    43   158   156    1
    44   148   145   ar
    45   155   154    2
    46   147   145   ar
    47   147   146   ar
    48   157   156    1
    49    94    95    1
    50    98    95    1
    51    98    99    1
    52   156   153    1
    53   145   143   ar
    54   153   154    1
    55   153   152    1
    56   146   144   ar
    57    95    96    1
    58   141   140    2
    59   127   129   ar
    60   127   125   ar
    61   152   140   am
    62   129   128   ar
    63   143   144   ar
    64   143   142    1
    65    14    12   ar
    66    14    13   ar
    67   140   139    1
    68    12    10   ar
    69    13    11   ar
    70    97    96    2
    71    10     8   ar
    72    10     9   ar
    73    11     8   ar
    74     8     6   ar
    75     9     7   ar
    76     7     6   ar
    77     6     5    1
    78     5     2    1
    79   123   122    2
    80   125   124    1
    81   125   126   ar
    82   142   139    1
    83   128   126   ar
    84   139   138    1
    85   124   121    1
    86   136   135    1
    87     2     1    1
    88     2     3    1
    89   122   121    1
    90   122   130   am
    91   133   132    2
    92   121   120    1
    93   131   130    1
    94   131   132    1
    95   131   134    1
    96   135   134    1
    97   135   137    1
    98     3    15   am
    99     3     4    2
   100    15    16    1
   101    19    16    1
   102    19    20    1
   103    16    17    1
   104    21    20   ar
   105    21    23   ar
   106    20    22   ar
   107   104   103    2
   108    23    25   ar
   109   108   106    1
   110    17    18    2
   111    22    24   ar
   112   112   111    2
   113   102   103    1
   114   102   101    1
   115   102   105    1
   116   103   109   am
   117    25    24   ar
   118   107   105    1
   119   111   110    1
   120   106   105    1
   121   109   110    1
   122   110   113    1
   123   115   117   ar
   124   115   114   ar
   125   113   114    1
   126   117   119   ar
   127    36    34   ar
   128    36    35   ar
   129    55    53   ar
   130    55    54   ar
   131    53    51   ar
   132   114   116   ar
   133    54    52   ar
   134    34    32   ar
   135    35    33   ar
   136    51    50   ar
   137    48    47    2
   138    52    50   ar
   139   119   118   ar
   140    50    49    1
   141   116   118   ar
   142    32    31   ar
   143    33    31   ar
   144    49    46    1
   145    46    47    1
   146    46    45    1
   147    31    30    1
   148    40    39    2
   149    44    42    1
   150    42    43    1
   151    42    41    1
   152    45    39   am
   153    39    38    1
   154    30    27    1
   155    26    27    1
   156    41    38    1
   157    27    28    1
   158    38    37    1
   159    28    29    2
