@<TRIPOS>MOLECULE
tmp/2j8dC00.pdb
 146 140 0 0 0
SMALL
GASTEIGER

@<TRIPOS>ATOM
      1  N         52.3290   84.5290   36.6840 N.3    59  SER59      -0.1202
      2  CA        50.9280   84.8960   36.7960 C.3    59  SER59       0.2020
      3  C         50.3710   84.4570   38.1380 C.2    59  SER59       0.2618
      4  O         49.6860   85.2100   38.8070 O.2    59  SER59      -0.2717
      5  CB        50.1250   84.2580   35.6600 C.3    59  SER59       0.2103
      6  OG        49.0120   85.0830   35.3590 O.3    59  SER59      -0.2182
      7  N         50.6760   83.2250   38.5170 N.am   60  LEU60      -0.1979
      8  CA        50.2170   82.6950   39.7900 C.3    60  LEU60       0.1596
      9  C         50.8280   83.4570   40.9620 C.2    60  LEU60       0.2287
     10  O         50.1130   83.8180   41.8920 O.2    60  LEU60      -0.2864
     11  CB        50.5150   81.2020   39.9080 C.3    60  LEU60       0.0297
     12  CG        50.1020   80.5640   41.2410 C.3    60  LEU60       0.0022
     13  CD1       48.5690   80.6320   41.4220 C.3    60  LEU60       0.0001
     14  CD2       50.6220   79.1070   41.3870 C.3    60  LEU60       0.0001
     15  N         49.3120   86.8780   41.1470 N.3    63  GLY63      -0.1210
     16  CA        47.9000   86.8020   41.5080 C.3    63  GLY63       0.1956
     17  C         47.7130   86.5920   42.9970 C.2    63  GLY63       0.2611
     18  O         46.8990   87.2700   43.6370 O.2    63  GLY63      -0.2717
     19  N         48.4610   85.6270   43.5300 N.am   64  LEU64      -0.1979
     20  CA        48.5530   85.3570   44.9690 C.3    64  LEU64       0.1596
     21  C         48.9980   86.5700   45.7880 C.2    64  LEU64       0.2287
     22  O         48.4350   86.8320   46.8430 O.2    64  LEU64      -0.2864
     23  CB        49.4790   84.1720   45.2290 C.3    64  LEU64       0.0297
     24  CG        48.8970   82.8210   44.8400 C.3    64  LEU64       0.0022
     25  CD1       49.9180   81.7440   45.0980 C.3    64  LEU64       0.0001
     26  CD2       47.6090   82.5300   45.5990 C.3    64  LEU64       0.0001
     27  N         48.5370   89.6770   44.8850 N.3    66  TRP66      -0.1227
     28  CA        47.4100   90.6100   44.8700 C.3    66  TRP66       0.1737
     29  C         46.4580   90.2140   45.9770 C.2    66  TRP66       0.2595
     30  O         46.0290   91.0390   46.7510 O.2    66  TRP66      -0.2718
     31  CB        46.6860   90.5660   43.5170 C.3    66  TRP66       0.0564
     32  CG        45.3080   91.2050   43.4900 C.ar   66  TRP66       0.0003
     33  CD1       45.0280   92.5310   43.4890 C.ar   66  TRP66       0.0946
     34  CD2       44.0470   90.5240   43.4120 C.ar   66  TRP66       0.0152
     35  NE1       43.6700   92.7260   43.4300 N.ar   66  TRP66      -0.2442
     36  CE2       43.0450   91.5090   43.3720 C.ar   66  TRP66       0.0810
     37  CE3       43.6720   89.1750   43.3790 C.ar   66  TRP66       0.0012
     38  CZ2       41.6770   91.1970   43.3100 C.ar   66  TRP66       0.0191
     39  CZ3       42.3080   88.8600   43.3110 C.ar   66  TRP66       0.0001
     40  CH2       41.3290   89.8770   43.2630 C.ar   66  TRP66       0.0015
     41  N         46.1430   88.9300   46.0310 N.am   67  PHE67      -0.1976
     42  CA        45.2020   88.3830   46.9790 C.3    67  PHE67       0.1639
     43  C         45.6830   88.6090   48.4230 C.2    67  PHE67       0.2290
     44  O         44.8850   88.9370   49.3050 O.2    67  PHE67      -0.2864
     45  CB        45.0550   86.8950   46.6850 C.3    67  PHE67       0.0560
     46  CG        44.0010   86.1950   47.5040 C.ar   67  PHE67      -0.0200
     47  CD1       42.6470   86.4370   47.2830 C.ar   67  PHE67      -0.0042
     48  CD2       44.3690   85.2510   48.4630 C.ar   67  PHE67      -0.0042
     49  CE1       41.6710   85.7730   48.0200 C.ar   67  PHE67      -0.0003
     50  CE2       43.3920   84.5700   49.2110 C.ar   67  PHE67      -0.0003
     51  CZ        42.0380   84.8420   48.9870 C.ar   67  PHE67      -0.0000
     52  N         49.2620   89.8930   36.9440 N.3   125  ALA125     -0.1231
     53  CA        48.5990   88.5950   36.9670 C.3   125  ALA125      0.1694
     54  C         47.6840   88.4020   35.7370 C.2   125  ALA125      0.2591
     55  O         47.7110   87.3410   35.0750 O.2   125  ALA125     -0.2718
     56  CB        47.7900   88.4290   38.2560 C.3   125  ALA125      0.0304
     57  N         46.8880   89.4230   35.4530 N.am  126  VAL126     -0.1980
     58  CA        45.8590   89.3470   34.4080 C.3   126  VAL126      0.1595
     59  C         46.5490   89.3590   33.0320 C.2   126  VAL126      0.2287
     60  O         46.3350   88.4620   32.2320 O.2   126  VAL126     -0.2864
     61  CB        44.8120   90.4860   34.5360 C.3   126  VAL126      0.0276
     62  CG1       43.9210   90.5700   33.2820 C.3   126  VAL126      0.0022
     63  CG2       43.9230   90.2830   35.8080 C.3   126  VAL126      0.0022
     64  N         48.3950   86.2420   32.3860 N.3   129  TRP129     -0.1241
     65  CA        47.3900   85.2110   32.1430 C.3   129  TRP129      0.1605
     66  C         46.8540   85.3200   30.7100 C.2   129  TRP129      0.2264
     67  O         46.6120   84.3010   30.0730 O.2   129  TRP129     -0.2867
     68  CB        46.1970   85.2620   33.1260 C.3   129  TRP129      0.0550
     69  CG        45.4340   83.9660   33.1180 C.ar  129  TRP129      0.0003
     70  CD1       44.2730   83.6790   32.4160 C.ar  129  TRP129      0.0946
     71  CD2       45.8040   82.7550   33.7900 C.ar  129  TRP129      0.0152
     72  NE1       43.9080   82.3660   32.6310 N.ar  129  TRP129     -0.2442
     73  CE2       44.8290   81.7790   33.4700 C.ar  129  TRP129      0.0810
     74  CE3       46.8820   82.3950   34.6230 C.ar  129  TRP129      0.0012
     75  CZ2       44.8890   80.4660   33.9660 C.ar  129  TRP129      0.0191
     76  CZ3       46.9470   81.0980   35.1080 C.ar  129  TRP129      0.0001
     77  CH2       45.9510   80.1450   34.7850 C.ar  129  TRP129      0.0015
     78  N         46.7490   82.5090   27.5850 N.3   133  THR133     -0.1218
     79  CA        45.6270   82.0340   26.7400 C.3   133  THR133      0.1862
     80  C         46.0520   82.0240   25.2520 C.2   133  THR133      0.2287
     81  O         45.6220   81.1680   24.4860 O.2   133  THR133     -0.2866
     82  CB        44.3030   82.8720   26.9000 C.3   133  THR133      0.1770
     83  OG1       44.5240   84.2230   26.4980 O.3   133  THR133     -0.2211
     84  CG2       43.7760   82.8610   28.3420 C.3   133  THR133      0.0375
     85  N         40.0480   82.3550   22.0910 N.3   146  THR146     -0.1218
     86  CA        40.0050   82.5060   23.5630 C.3   146  THR146      0.1862
     87  C         40.6790   83.8060   24.0040 C.2   146  THR146      0.2287
     88  O         40.0640   84.6130   24.7080 O.2   146  THR146     -0.2866
     89  CB        40.5790   81.2780   24.2740 C.3   146  THR146      0.1770
     90  OG1       39.8570   80.1190   23.8500 O.3   146  THR146     -0.2211
     91  CG2       40.4650   81.4120   25.8780 C.3   146  THR146      0.0375
     92  N         38.4880   86.7210   22.9520 N.3   149  ALA149     -0.1231
     93  CA        37.3220   86.8490   23.8730 C.3   149  ALA149      0.1694
     94  C         37.7660   87.3910   25.2660 C.2   149  ALA149      0.2592
     95  O         37.1680   88.3250   25.7850 O.2   149  ALA149     -0.2718
     96  CB        36.6280   85.5360   24.0110 C.3   149  ALA149      0.0304
     97  N         38.8590   86.8450   25.8050 N.am  150  PHE150     -0.1976
     98  CA        39.4050   87.2640   27.1130 C.3   150  PHE150      0.1639
     99  C         39.7420   88.7380   27.0880 C.2   150  PHE150      0.2290
    100  O         39.4590   89.4870   28.0430 O.2   150  PHE150     -0.2864
    101  CB        40.6030   86.3900   27.4800 C.3   150  PHE150      0.0560
    102  CG        41.1760   86.6330   28.8850 C.ar  150  PHE150     -0.0200
    103  CD1       40.4090   87.2140   29.9100 C.ar  150  PHE150     -0.0042
    104  CD2       42.4750   86.2110   29.1770 C.ar  150  PHE150     -0.0042
    105  CE1       40.9630   87.4070   31.2040 C.ar  150  PHE150     -0.0003
    106  CE2       43.0380   86.4200   30.4470 C.ar  150  PHE150     -0.0003
    107  CZ        42.2760   87.0130   31.4530 C.ar  150  PHE150     -0.0000
    108  N         36.7720   90.9290   28.1390 N.3   153  ALA153     -0.1245
    109  CA        36.6090   91.0240   29.6110 C.3   153  ALA153      0.1562
    110  C         37.6800   91.9830   30.1770 C.2   153  ALA153      0.2260
    111  O         37.3740   92.8880   30.9670 O.2   153  ALA153     -0.2867
    112  CB        36.7050   89.6600   30.2370 C.3   153  ALA153      0.0290
    113  N         23.9300   90.6870   28.0620 N.3   209  LEU209     -0.1245
    114  CA        24.0610   89.8000   29.2490 C.3   209  LEU209      0.1561
    115  C         22.8480   88.8790   29.3770 C.2   209  LEU209      0.2260
    116  O         22.9660   87.6570   29.5560 O.2   209  LEU209     -0.2867
    117  CB        24.2580   90.6400   30.5300 C.3   209  LEU209      0.0270
    118  CG        24.5050   89.7460   31.7640 C.3   209  LEU209      0.0019
    119  CD1       25.8700   89.0100   31.7020 C.3   209  LEU209      0.0001
    120  CD2       24.4270   90.6260   33.0190 C.3   209  LEU209      0.0001
    121  N         28.3770   86.9760   24.0200 N.3   273  ALA273     -0.1231
    122  CA        29.1830   87.1250   25.2300 C.3   273  ALA273      0.1694
    123  C         30.1870   88.2800   25.1960 C.2   273  ALA273      0.2591
    124  O         30.1970   89.1340   26.1120 O.2   273  ALA273     -0.2718
    125  CB        29.8680   85.8110   25.5430 C.3   273  ALA273      0.0304
    126  N         31.0420   88.3810   24.1750 N.am  274  VAL274     -0.1980
    127  CA        32.0390   89.4490   24.2190 C.3   274  VAL274      0.1595
    128  C         31.4770   90.8490   24.1560 C.2   274  VAL274      0.2287
    129  O         32.1170   91.7910   24.6550 O.2   274  VAL274     -0.2864
    130  CB        33.2520   89.3270   23.1980 C.3   274  VAL274      0.0276
    131  CG1       33.7610   87.8810   23.0950 C.3   274  VAL274      0.0022
    132  CG2       32.9110   89.9070   21.8820 C.3   274  VAL274      0.0022
    133  N         28.9920   91.9450   25.7830 N.3   276  VAL276     -0.1231
    134  CA        28.6400   92.3580   27.1710 C.3   276  VAL276      0.1692
    135  C         29.6630   93.3640   27.6560 C.2   276  VAL276      0.2592
    136  O         29.3500   94.5270   27.9010 O.2   276  VAL276     -0.2718
    137  CB        28.6220   91.1540   28.0950 C.3   276  VAL276      0.0266
    138  CG1       28.4730   91.5980   29.6460 C.3   276  VAL276      0.0020
    139  CG2       27.5030   90.2460   27.6940 C.3   276  VAL276      0.0020
    140  N         30.9130   92.9320   27.7160 N.am  277  THR277     -0.1953
    141  CA        31.9770   93.7830   28.2260 C.3   277  THR277      0.1897
    142  C         32.5270   94.7900   27.2130 C.2   277  THR277      0.2313
    143  O         33.0750   95.8270   27.6020 O.2   277  THR277     -0.2863
    144  CB        33.0870   92.9320   28.7870 C.3   277  THR277      0.1794
    145  OG1       33.3970   91.9060   27.8460 O.3   277  THR277     -0.2208
    146  CG2       32.5830   92.2170   30.1130 C.3   277  THR277      0.0378
@<TRIPOS>BOND
     1   132   130    1
     2    85    86    1
     3    92    93    1
     4   131   130    1
     5   130   127    1
     6    86    87    1
     7    86    89    1
     8    90    89    1
     9    93    96    1
    10    93    94    1
    11    87    88    2
    12   121   122    1
    13   128   127    1
    14   128   129    2
    15   126   127    1
    16   126   123   am
    17    89    91    1
    18    81    80    2
    19   123   122    1
    20   123   124    2
    21   122   125    1
    22    80    79    1
    23    94    95    2
    24    94    97   am
    25   133   134    1
    26    97    98    1
    27    83    82    1
    28    79    82    1
    29    79    78    1
    30    82    84    1
    31    99    98    1
    32    99   100    2
    33    98   101    1
    34   134   135    1
    35   134   137    1
    36   142   143    2
    37   142   141    1
    38   101   102    1
    39   135   140   am
    40   135   136    2
    41   139   137    1
    42   140   141    1
    43   145   144    1
    44   113   114    1
    45   137   138    1
    46   108   109    1
    47   141   144    1
    48   144   146    1
    49   102   104   ar
    50   102   103   ar
    51   104   106   ar
    52   114   115    1
    53   114   117    1
    54   115   116    2
    55   109   110    1
    56   109   112    1
    57   103   105   ar
    58    67    66    2
    59   110   111    2
    60   106   107   ar
    61   117   118    1
    62    66    65    1
    63   105   107   ar
    64   119   118    1
    65   118   120    1
    66    65    64    1
    67    65    68    1
    68    60    59    2
    69    70    72   ar
    70    70    69   ar
    71    72    73   ar
    72    59    58    1
    73    69    68    1
    74    69    71   ar
    75    62    61    1
    76    73    71   ar
    77    73    75   ar
    78    71    74   ar
    79    75    77   ar
    80    58    61    1
    81    58    57    1
    82    61    63    1
    83    74    76   ar
    84    77    76   ar
    85    55    54    2
    86     6     5    1
    87    57    54   am
    88     5     2    1
    89    54    53    1
    90     1     2    1
    91     2     3    1
    92    52    53    1
    93    53    56    1
    94     3     7   am
    95     3     4    2
    96     7     8    1
    97     8    11    1
    98     8     9    1
    99    11    12    1
   100     9    10    2
   101    15    16    1
   102    12    14    1
   103    12    13    1
   104    16    17    1
   105    17    19   am
   106    17    18    2
   107    40    38   ar
   108    40    39   ar
   109    38    36   ar
   110    39    37   ar
   111    36    34   ar
   112    36    35   ar
   113    37    34   ar
   114    34    32   ar
   115    35    33   ar
   116    33    32   ar
   117    32    31    1
   118    31    28    1
   119    19    20    1
   120    24    25    1
   121    24    23    1
   122    24    26    1
   123    28    27    1
   124    28    29    1
   125    20    23    1
   126    20    21    1
   127    21    22    2
   128    29    41   am
   129    29    30    2
   130    41    42    1
   131    45    42    1
   132    45    46    1
   133    42    43    1
   134    47    46   ar
   135    47    49   ar
   136    46    48   ar
   137    49    51   ar
   138    43    44    2
   139    48    50   ar
   140    51    50   ar
