@<TRIPOS>MOLECULE
tmp/2j8fA03.pdb
 92 86 0 0 0
SMALL
GASTEIGER

@<TRIPOS>ATOM
      1  N         49.0890   12.5360   20.6690 N.3     3  LYS3       -0.1245
      2  CA        48.4670   11.2370   20.4460 C.3     3  LYS3        0.1561
      3  C         48.7610   10.7570   19.0590 C.2     3  LYS3        0.2260
      4  O         48.6230   11.5220   18.1040 O.2     3  LYS3       -0.2867
      5  CB        46.9500   11.3040   20.5590 C.3     3  LYS3        0.0271
      6  CG        46.4240   11.6970   21.9160 C.3     3  LYS3        0.0035
      7  CD        44.8740   11.6180   21.9710 C.3     3  LYS3        0.0206
      8  CE        44.1700   12.3900   20.8530 C.3     3  LYS3        0.1093
      9  NZ        42.6820   12.3700   21.0160 N.3     3  LYS3       -0.1314
     10  N         49.7370    8.9590   34.7340 N.3   145  ASN145     -0.1240
     11  CA        49.9340    8.7780   33.3280 C.3   145  ASN145      0.1653
     12  C         51.4240    8.7000   32.9750 C.2   145  ASN145      0.2266
     13  O         51.9140    9.4030   32.0840 O.2   145  ASN145     -0.2867
     14  CB        49.2240    9.9050   32.5800 C.3   145  ASN145      0.1155
     15  CG        47.7210    9.7950   32.6610 C.2   145  ASN145      0.2627
     16  OD1       47.0140   10.8150   32.7720 O.2   145  ASN145     -0.2716
     17  ND2       47.2240    8.5850   32.6690 N.am  145  ASN145     -0.0877
     18  N         46.8920   -4.8720   22.4310 N.3   164  PHE164     -0.1241
     19  CA        47.1080   -3.7350   23.3100 C.3   164  PHE164      0.1605
     20  C         47.2320   -4.1960   24.7730 C.2   164  PHE164      0.2264
     21  O         46.3690   -4.8750   25.2510 O.2   164  PHE164     -0.2867
     22  CB        45.9620   -2.7170   23.2370 C.3   164  PHE164      0.0534
     23  CG        46.2660   -1.4710   24.0120 C.ar  164  PHE164     -0.0203
     24  CD1       47.2350   -0.6480   23.5730 C.ar  164  PHE164     -0.0042
     25  CD2       45.6070   -1.1650   25.1770 C.ar  164  PHE164     -0.0042
     26  CE1       47.5730    0.5110   24.2470 C.ar  164  PHE164     -0.0003
     27  CE2       45.9660   -0.0600   25.8990 C.ar  164  PHE164     -0.0003
     28  CZ        46.9500    0.8140   25.4090 C.ar  164  PHE164     -0.0000
     29  N         46.5790   -3.7510   27.9920 N.3   166  SER166     -0.1202
     30  CA        45.6840   -2.8870   28.7450 C.3   166  SER166      0.2020
     31  C         46.0910   -2.7530   30.2010 C.2   166  SER166      0.2619
     32  O         46.0950   -3.7460   30.9520 O.2   166  SER166     -0.2717
     33  CB        44.2600   -3.4460   28.7070 C.3   166  SER166      0.2103
     34  OG        43.7660   -3.4440   27.3920 O.3   166  SER166     -0.2182
     35  N         46.5160   -1.5430   30.5420 N.am  167  MET167     -0.1965
     36  CA        46.7760   -1.1100   31.9000 C.3   167  MET167      0.1736
     37  C         46.3530    0.3480   32.0300 C.2   167  MET167      0.2616
     38  O         46.2320    1.0700   31.0460 O.2   167  MET167     -0.2715
     39  CB        48.2960   -1.2310   32.2210 C.3   167  MET167      0.0427
     40  CG        48.8610   -2.6300   32.1010 C.3   167  MET167      0.0599
     41  SD        50.6550   -2.6830   32.2590 S.3   167  MET167     -0.1393
     42  CE        50.7760   -2.5770   33.9760 C.3   167  MET167      0.0692
     43  N         46.1240    0.7880   33.2570 N.am  168  ASP168     -0.1957
     44  CA        45.8740    2.1700   33.4850 C.3   168  ASP168      0.1840
     45  C         47.1020    3.0040   33.2650 C.2   168  ASP168      0.2623
     46  O         48.2430    2.5300   33.3900 O.2   168  ASP168     -0.2715
     47  CB        45.3850    2.4010   34.9010 C.3   168  ASP168      0.1450
     48  CG        44.0590    1.6970   35.1850 C.2   168  ASP168      0.3671
     49  OD1       43.1610    1.6300   34.2910 O.co2 168  ASP168     -0.2456
     50  OD2       43.8740    1.1500   36.2830 O.co2 168  ASP168     -0.2456
     51  N         46.8680    4.2750   32.9500 N.am  169  GLY169     -0.1940
     52  CA        47.9310    5.2440   32.9040 C.3   169  GLY169      0.2014
     53  C         49.0060    5.1290   31.8280 C.2   169  GLY169      0.2638
     54  O         50.0980    5.6970   32.0130 O.2   169  GLY169     -0.2714
     55  N         48.7630    4.3530   30.7780 N.am  170  ILE170     -0.1977
     56  CA        49.7270    4.2170   29.7020 C.3   170  ILE170      0.1596
     57  C         49.8120    5.5200   28.8940 C.2   170  ILE170      0.2287
     58  O         48.8340    5.9720   28.3020 O.2   170  ILE170     -0.2864
     59  CB        49.3910    3.0350   28.7720 C.3   170  ILE170      0.0276
     60  CG1       49.4570    1.7080   29.5460 C.3   170  ILE170      0.0022
     61  CG2       50.4030    2.9960   27.6350 C.3   170  ILE170      0.0022
     62  CD1       48.8940    0.5360   28.7610 C.3   170  ILE170      0.0001
     63  N         49.9530    7.4980   23.2520 N.3   186  LEU186     -0.1231
     64  CA        48.5700    7.4540   23.6300 C.3   186  LEU186      0.1693
     65  C         48.0390    8.7640   24.1890 C.2   186  LEU186      0.2591
     66  O         46.8090    8.9910   24.1200 O.2   186  LEU186     -0.2718
     67  CB        48.3080    6.3840   24.6830 C.3   186  LEU186      0.0284
     68  CG        48.0820    4.9890   24.1150 C.3   186  LEU186      0.0019
     69  CD1       49.1720    4.5590   23.1950 C.3   186  LEU186      0.0001
     70  CD2       47.9950    4.0890   25.2480 C.3   186  LEU186      0.0001
     71  N         48.9080    9.5690   24.7890 N.am  187  LEU187     -0.1980
     72  CA        48.4780   10.7960   25.4910 C.3   187  LEU187      0.1596
     73  C         49.3740   11.9610   25.0520 C.2   187  LEU187      0.2287
     74  O         50.5960   11.8040   24.9400 O.2   187  LEU187     -0.2864
     75  CB        48.6380   10.6030   27.0060 C.3   187  LEU187      0.0297
     76  CG        47.7870    9.6070   27.7330 C.3   187  LEU187      0.0022
     77  CD1       48.2460    9.4660   29.1610 C.3   187  LEU187      0.0001
     78  CD2       46.3320   10.0240   27.6860 C.3   187  LEU187      0.0001
     79  N         41.6870    2.1660   16.5110 N.3   287  LYS287     -0.1245
     80  CA        41.6830    0.9980   17.4070 C.3   287  LYS287      0.1561
     81  C         41.4580   -0.2410   16.5570 C.2   287  LYS287      0.2260
     82  O         42.3000   -0.5030   15.7350 O.2   287  LYS287     -0.2867
     83  CB        40.6720    1.1810   18.5400 C.3   287  LYS287      0.0271
     84  CG        40.9920    2.4200   19.3870 C.3   287  LYS287      0.0035
     85  CD        39.9350    2.7210   20.4220 C.3   287  LYS287      0.0206
     86  CE        40.2540    4.0160   21.1750 C.3   287  LYS287      0.1093
     87  NZ        41.3130    3.7410   22.2020 N.3   287  LYS287     -0.1314
     88  N         44.1020    5.9870   19.7540 N.3   338  ALA338     -0.1245
     89  CA        43.3600    6.8580   20.6760 C.3   338  ALA338      0.1562
     90  C         42.8870    8.1240   19.9840 C.2   338  ALA338      0.2260
     91  O         43.3560    8.4440   18.8600 O.2   338  ALA338     -0.2867
     92  CB        44.2160    7.2200   21.8040 C.3   338  ALA338      0.0290
@<TRIPOS>BOND
     1    82    81    2
     2    79    80    1
     3    81    80    1
     4    80    83    1
     5     4     3    2
     6    83    84    1
     7    91    90    2
     8     3     2    1
     9    84    85    1
    10    88    89    1
    11    90    89    1
    12    85    86    1
    13     2     5    1
    14     2     1    1
    15     5     6    1
    16    89    92    1
    17     8     9    1
    18     8     7    1
    19    86    87    1
    20     6     7    1
    21    18    19    1
    22    69    68    1
    23    22    19    1
    24    22    23    1
    25    63    64    1
    26    19    20    1
    27    24    23   ar
    28    24    26   ar
    29    64    65    1
    30    64    67    1
    31    23    25   ar
    32    68    67    1
    33    68    70    1
    34    66    65    2
    35    65    71   am
    36    26    28   ar
    37    20    21    2
    38    71    72    1
    39    74    73    2
    40    73    72    1
    41    25    27   ar
    42    28    27   ar
    43    72    75    1
    44    75    76    1
    45    34    33    1
    46    61    59    1
    47    78    76    1
    48    76    77    1
    49    29    30    1
    50    58    57    2
    51    33    30    1
    52    30    31    1
    53    62    60    1
    54    59    60    1
    55    59    56    1
    56    57    56    1
    57    56    55    1
    58    31    35   am
    59    31    32    2
    60    35    36    1
    61    55    53   am
    62    38    37    2
    63    53    54    2
    64    53    52    1
    65    36    37    1
    66    36    39    1
    67    37    43   am
    68    13    12    2
    69    40    39    1
    70    40    41    1
    71    41    42    1
    72    14    15    1
    73    14    11    1
    74    15    17   am
    75    15    16    2
    76    52    51    1
    77    51    45   am
    78    12    11    1
    79    43    44    1
    80    45    46    2
    81    45    44    1
    82    11    10    1
    83    44    47    1
    84    49    48   ar
    85    47    48    1
    86    48    50   ar
