@<TRIPOS>MOLECULE
tmp/2j8gA00.pdb
 82 81 0 0 0
SMALL
GASTEIGER

@<TRIPOS>ATOM
      1  N         62.1000   -4.6570   33.7190 N.3    93  GLN93      -0.1245
      2  CA        61.6400   -5.8610   33.0250 C.3    93  GLN93       0.1566
      3  C         62.5090   -7.0780   33.3210 C.2    93  GLN93       0.2260
      4  O         62.3540   -8.1080   32.6880 O.2    93  GLN93      -0.2867
      5  CB        61.5570   -5.6180   31.5280 C.3    93  GLN93       0.0367
      6  CG        62.9200   -5.4540   30.8630 C.3    93  GLN93       0.0905
      7  CD        62.8570   -5.3320   29.3790 C.2    93  GLN93       0.2608
      8  OE1       62.8520   -4.2200   28.8440 O.2    93  GLN93      -0.2717
      9  NE2       62.8310   -6.4680   28.6880 N.am   93  GLN93      -0.0878
     10  N         58.1380    1.6450   32.4460 N.3   124  TYR124     -0.1241
     11  CA        58.0080    0.8100   31.2380 C.3   124  TYR124      0.1605
     12  C         58.1940   -0.6320   31.6580 C.2   124  TYR124      0.2264
     13  O         59.0820   -0.9460   32.4470 O.2   124  TYR124     -0.2867
     14  CB        59.0970    1.1500   30.1960 C.3   124  TYR124      0.0534
     15  CG        59.2690    0.0970   29.1110 C.ar  124  TYR124     -0.0201
     16  CD1       58.4770    0.1130   27.9710 C.ar  124  TYR124     -0.0009
     17  CD2       60.1330   -0.9450   29.2690 C.ar  124  TYR124     -0.0009
     18  CE1       58.6030   -0.8880   27.0020 C.ar  124  TYR124      0.0417
     19  CE2       60.2540   -1.9410   28.3370 C.ar  124  TYR124      0.0417
     20  CZ        59.4910   -1.9190   27.1920 C.ar  124  TYR124      0.1957
     21  OH        59.6400   -2.9330   26.2400 O.3   124  TYR124     -0.2866
     22  N         56.2480   -4.9670   30.6240 N.3   126  TYR126     -0.1227
     23  CA        55.1560   -5.7050   29.9830 C.3   126  TYR126      0.1736
     24  C         54.1960   -6.1940   31.0850 C.2   126  TYR126      0.2595
     25  O         54.5500   -6.2270   32.2520 O.2   126  TYR126     -0.2718
     26  CB        55.6830   -6.8220   29.0620 C.3   126  TYR126      0.0548
     27  CG        56.6130   -7.8620   29.6540 C.ar  126  TYR126     -0.0200
     28  CD1       56.1450   -9.1140   29.9670 C.ar  126  TYR126     -0.0009
     29  CD2       57.9620   -7.5830   29.9200 C.ar  126  TYR126     -0.0009
     30  CE1       56.9840  -10.1160   30.4720 C.ar  126  TYR126      0.0417
     31  CE2       58.8170   -8.5820   30.4330 C.ar  126  TYR126      0.0417
     32  CZ        58.2900   -9.8510   30.7220 C.ar  126  TYR126      0.1957
     33  OH        59.0880  -10.8460   31.2330 O.3   126  TYR126     -0.2866
     34  N         52.9750   -6.5300   30.6970 N.am  127  LYS127     -0.1966
     35  CA        51.8810   -6.7820   31.6280 C.3   127  LYS127      0.1713
     36  C         52.0730   -7.9360   32.6250 C.2   127  LYS127      0.2458
     37  O         51.9640   -7.7150   33.8040 O.2   127  LYS127     -0.2730
     38  CB        50.5510   -6.9000   30.8790 C.3   127  LYS127      0.0311
     39  CG        49.3550   -7.1990   31.7960 C.3   127  LYS127      0.0038
     40  CD        48.0690   -7.1820   30.9720 C.3   127  LYS127      0.0206
     41  CE        46.8150   -7.4240   31.8400 C.3   127  LYS127      0.1093
     42  NZ        45.6420   -7.3050   30.9400 N.3   127  LYS127     -0.1314
     43  N         52.3290   -9.1590   32.1810 N.am  128  PRO128     -0.2727
     44  CA        52.5940  -10.2400   33.1380 C.3   128  PRO128      0.1402
     45  C         53.7660  -10.0170   34.0930 C.2   128  PRO128      0.2269
     46  O         53.6910  -10.3820   35.2690 O.2   128  PRO128     -0.2865
     47  CB        52.7810  -11.4900   32.2520 C.3   128  PRO128      0.0296
     48  CG        52.9530  -11.0080   30.8890 C.3   128  PRO128      0.0237
     49  CD        52.3130   -9.6220   30.7860 C.3   128  PRO128      0.0939
     50  N         53.1240   -9.8660   38.1660 N.3   132  ASP132     -0.1239
     51  CA        53.8110  -10.7610   39.0880 C.3   132  ASP132      0.1674
     52  C         54.8040  -10.0730   40.0500 C.2   132  ASP132      0.2266
     53  O         55.0960  -10.6050   41.1320 O.2   132  ASP132     -0.2867
     54  CB        54.5500  -11.8470   38.3180 C.3   132  ASP132      0.1410
     55  CG        53.6010  -12.7570   37.5200 C.2   132  ASP132      0.3668
     56  OD1       52.3550  -12.6900   37.6880 O.co2 132  ASP132     -0.2456
     57  OD2       54.0370  -13.5460   36.6640 O.co2 132  ASP132     -0.2456
     58  N         54.4700   -2.6750   26.9200 N.3   150  ALA150     -0.1231
     59  CA        54.7760   -3.4430   25.7210 C.3   150  ALA150      0.1694
     60  C         53.7710   -4.5850   25.5760 C.2   150  ALA150      0.2593
     61  O         53.4460   -5.2310   26.5550 O.2   150  ALA150     -0.2718
     62  CB        56.1840   -3.9840   25.8140 C.3   150  ALA150      0.0304
     63  N         53.2530   -4.7650   24.3610 N.am  151  GLY151     -0.1942
     64  CA        52.3760   -5.8890   24.0120 C.3   151  GLY151      0.2014
     65  C         52.2960   -5.9650   22.5010 C.2   151  GLY151      0.2639
     66  O         51.7940   -5.0410   21.8590 O.2   151  GLY151     -0.2714
     67  N         52.9740   -6.9630   21.9160 N.am  152  TYR152     -0.1959
     68  CA        53.2610   -6.9930   20.5050 C.3   152  TYR152      0.1771
     69  C         52.2730   -7.8450   19.6970 C.2   152  TYR152      0.2620
     70  O         52.2770   -7.7700   18.4870 O.2   152  TYR152     -0.2715
     71  CB        54.6910   -7.5330   20.2120 C.3   152  TYR152      0.0574
     72  CG        55.8240   -6.8590   20.9590 C.ar  152  TYR152     -0.0198
     73  CD1       57.0450   -7.5300   21.1740 C.ar  152  TYR152     -0.0009
     74  CD2       55.7130   -5.5400   21.3890 C.ar  152  TYR152     -0.0009
     75  CE1       58.0880   -6.9190   21.8410 C.ar  152  TYR152      0.0417
     76  CE2       56.7570   -4.9230   22.0780 C.ar  152  TYR152      0.0417
     77  CZ        57.9240   -5.6020   22.3060 C.ar  152  TYR152      0.1957
     78  OH        58.9500   -4.9860   22.9640 O.3   152  TYR152     -0.2866
     79  N         51.4580   -8.6550   20.3660 N.am  153  GLY153     -0.1954
     80  CA        50.5500   -9.5540   19.6580 C.3   153  GLY153      0.1869
     81  C         51.3330  -10.5980   18.8910 C.2   153  GLY153      0.2309
     82  O         52.1680  -11.2970   19.4610 O.2   153  GLY153     -0.2863
@<TRIPOS>BOND
     1    70    69    2
     2    81    82    2
     3    81    80    1
     4    80    79    1
     5    69    79   am
     6    69    68    1
     7    71    68    1
     8    71    72    1
     9    68    67    1
    10    72    73   ar
    11    72    74   ar
    12    73    75   ar
    13    74    76   ar
    14    75    77   ar
    15    66    65    2
    16    67    65   am
    17    76    77   ar
    18    77    78    1
    19    65    64    1
    20    64    63    1
    21    63    60   am
    22    60    59    1
    23    60    61    2
    24    59    62    1
    25    59    58    1
    26    21    20    1
    27    18    20   ar
    28    18    16   ar
    29    20    19   ar
    30    16    15   ar
    31    19    17   ar
    32     9     7   am
    33     8     7    2
    34    26    27    1
    35    26    23    1
    36    15    17   ar
    37    15    14    1
    38     7     6    1
    39    27    29   ar
    40    27    28   ar
    41    29    31   ar
    42    28    30   ar
    43    23    22    1
    44    23    24    1
    45    14    11    1
    46    31    32   ar
    47    30    32   ar
    48    34    24   am
    49    34    35    1
    50    32    33    1
    51    49    48    1
    52    49    43    1
    53     6     5    1
    54    38    35    1
    55    38    39    1
    56    48    47    1
    57    42    41    1
    58    40    39    1
    59    40    41    1
    60    24    25    2
    61    11    12    1
    62    11    10    1
    63     5     2    1
    64    35    36    1
    65    12    13    2
    66    43    36   am
    67    43    44    1
    68    47    44    1
    69    36    37    2
    70     4     3    2
    71     2     3    1
    72     2     1    1
    73    44    45    1
    74    45    46    2
    75    57    55   ar
    76    55    56   ar
    77    55    54    1
    78    50    51    1
    79    54    51    1
    80    51    52    1
    81    52    53    2
