@<TRIPOS>MOLECULE
tmp/2j8rA00.pdb
 112 109 0 0 0
SMALL
GASTEIGER

@<TRIPOS>ATOM
      1  N         25.3580    0.0870   48.6550 N.3    26  THR26      -0.1203
      2  CA        24.2100    0.3720   49.5080 C.3    26  THR26       0.1994
      3  C         23.0450    0.7800   48.6070 C.2    26  THR26       0.2618
      4  O         22.0730    1.3760   49.0660 O.2    26  THR26      -0.2717
      5  CB        24.4810    1.5310   50.4860 C.3    26  THR26       0.1784
      6  OG1       24.9070    2.6840   49.7510 O.3    26  THR26      -0.2211
      7  CG2       25.5410    1.1420   51.5060 C.3    26  THR26       0.0376
      8  N         23.1500    0.4580   47.3210 N.am   27  ALA27      -0.1965
      9  CA        22.1000    0.8000   46.3590 C.3    27  ALA27       0.1728
     10  C         20.8590   -0.0590   46.5810 C.2    27  ALA27       0.2616
     11  O         19.7300    0.3820   46.3610 O.2    27  ALA27      -0.2715
     12  CB        22.6130    0.6170   44.9290 C.3    27  ALA27       0.0334
     13  N         21.0820   -1.2940   47.0120 N.am   28  ILE28      -0.1963
     14  CA        19.9990   -2.2260   47.2790 C.3    28  ILE28       0.1727
     15  C         20.2120   -2.7540   48.7010 C.2    28  ILE28       0.2616
     16  O         21.2930   -3.2540   49.0390 O.2    28  ILE28      -0.2715
     17  CB        20.0090   -3.3800   46.2420 C.3    28  ILE28       0.0290
     18  CG1       18.9180   -4.4030   46.5700 C.3    28  ILE28       0.0022
     19  CG2       21.3850   -4.0150   46.1860 C.3    28  ILE28       0.0023
     20  CD1       17.5020   -3.8880   46.3450 C.3    28  ILE28       0.0001
     21  N         19.1820   -2.6330   49.5370 N.am   29  TRP29      -0.1960
     22  CA        19.2970   -3.0570   50.9240 C.3    29  TRP29       0.1771
     23  C         18.9330   -4.5100   51.1830 C.2    29  TRP29       0.2619
     24  O         18.0230   -4.8280   51.9510 O.2    29  TRP29      -0.2715
     25  CB        18.5070   -2.1030   51.8350 C.3    29  TRP29       0.0590
     26  CG        19.0710   -0.6960   51.8020 C.ar   29  TRP29       0.0006
     27  CD1       20.0890   -0.2430   51.0090 C.ar   29  TRP29       0.0946
     28  CD2       18.6220    0.4400   52.5590 C.ar   29  TRP29       0.0152
     29  NE1       20.3000    1.0980   51.2210 N.ar   29  TRP29      -0.2442
     30  CE2       19.4150    1.5440   52.1660 C.ar   29  TRP29       0.0810
     31  CE3       17.6290    0.6340   53.5290 C.ar   29  TRP29       0.0012
     32  CZ2       19.2430    2.8240   52.7080 C.ar   29  TRP29       0.0191
     33  CZ3       17.4590    1.9090   54.0660 C.ar   29  TRP29       0.0001
     34  CH2       18.2640    2.9860   53.6520 C.ar   29  TRP29       0.0015
     35  N         19.6650   -5.3790   50.4950 N.am   30  ASN30      -0.1972
     36  CA        19.5680   -6.8280   50.6230 C.3    30  ASN30       0.1688
     37  C         21.0290   -7.2620   50.6840 C.2    30  ASN30       0.2292
     38  O         21.8900   -6.6340   50.0580 O.2    30  ASN30      -0.2864
     39  CB        18.9260   -7.4790   49.3940 C.3    30  ASN30       0.1181
     40  CG        17.4210   -7.3550   49.3790 C.2    30  ASN30       0.2629
     41  OD1       16.7570   -7.5330   50.4040 O.2    30  ASN30      -0.2716
     42  ND2       16.8660   -7.0720   48.2070 N.am   30  ASN30      -0.0877
     43  N          6.9740   -8.5090   35.8760 N.3    46  ARG46      -0.1245
     44  CA         6.9210   -7.1290   35.3900 C.3    46  ARG46       0.1563
     45  C          6.0910   -7.0360   34.1180 C.2    46  ARG46       0.2260
     46  O          5.2730   -6.1260   33.9500 O.2    46  ARG46      -0.2867
     47  CB         8.3340   -6.6170   35.1100 C.3    46  ARG46       0.0307
     48  CG         9.1080   -6.2450   36.3630 C.3    46  ARG46       0.0489
     49  CD         8.8610   -4.7900   36.7280 C.3    46  ARG46       0.2205
     50  NE         9.6830   -4.3600   37.8530 N.pl3  46  ARG46      -0.0865
     51  CZ         9.4380   -4.6840   39.1150 C.cat  46  ARG46       0.5346
     52  NH1        8.3900   -5.4400   39.4110 N.pl3  46  ARG46       0.1354
     53  NH2       10.2480   -4.2600   40.0770 N.pl3  46  ARG46       0.1354
     54  N          7.7770    2.8710   41.8620 N.3    83  GLU83      -0.1231
     55  CA         9.1170    3.0780   42.3890 C.3    83  GLU83       0.1699
     56  C         10.0680    2.4570   41.3850 C.2    83  GLU83       0.2592
     57  O          9.8890    1.3060   40.9830 O.2    83  GLU83      -0.2718
     58  CB         9.3060    2.3940   43.7400 C.3    83  GLU83       0.0402
     59  CG        10.6780    2.6720   44.3430 C.3    83  GLU83       0.1161
     60  CD        10.9150    1.9150   45.6310 C.2    83  GLU83       0.3649
     61  OE1        9.9440    1.6950   46.3850 O.co2  83  GLU83      -0.2457
     62  OE2       12.0760    1.5470   45.8960 O.co2  83  GLU83      -0.2457
     63  N         11.0820    3.2060   40.9810 N.am   84  HIS84      -0.1962
     64  CA        12.0140    2.6770   40.0010 C.3    84  HIS84       0.1787
     65  C         13.3670    2.2720   40.5640 C.2    84  HIS84       0.2620
     66  O         13.7120    2.5950   41.7010 O.2    84  HIS84      -0.2715
     67  CB        12.2210    3.6970   38.8860 C.3    84  HIS84       0.0785
     68  CG        12.9830    4.9070   39.3150 C.ar   84  HIS84       0.0821
     69  ND1       14.3580    4.9360   39.3840 N.ar   84  HIS84      -0.2267
     70  CD2       12.5610    6.1300   39.7130 C.ar   84  HIS84       0.1154
     71  CE1       14.7510    6.1250   39.8030 C.ar   84  HIS84       0.1986
     72  NE2       13.6800    6.8680   40.0100 N.ar   84  HIS84      -0.2212
     73  N         14.1330    1.5570   39.7480 N.am   85  SER85      -0.1950
     74  CA        15.4700    1.1140   40.1220 C.3    85  SER85       0.1924
     75  C         16.3260    1.2490   38.8700 C.2    85  SER85       0.2314
     76  O         15.8500    0.9970   37.7590 O.2    85  SER85      -0.2863
     77  CB        15.4520   -0.3420   40.5890 C.3    85  SER85       0.2116
     78  OG        14.9490   -1.1960   39.5800 O.3    85  SER85      -0.2180
     79  N         20.4210    0.4140   37.6430 N.3    87  TYR87      -0.1241
     80  CA        21.7220   -0.1480   37.9790 C.3    87  TYR87       0.1605
     81  C         22.6550   -0.0820   36.7840 C.2    87  TYR87       0.2264
     82  O         22.3280   -0.5840   35.7120 O.2    87  TYR87      -0.2867
     83  CB        21.5930   -1.6150   38.3990 C.3    87  TYR87       0.0534
     84  CG        20.7760   -1.8570   39.6410 C.ar   87  TYR87      -0.0201
     85  CD1       19.3940   -2.0240   39.5710 C.ar   87  TYR87      -0.0009
     86  CD2       21.3920   -1.9480   40.8890 C.ar   87  TYR87      -0.0009
     87  CE1       18.6420   -2.2840   40.7170 C.ar   87  TYR87       0.0417
     88  CE2       20.6530   -2.2020   42.0400 C.ar   87  TYR87       0.0417
     89  CZ        19.2800   -2.3710   41.9470 C.ar   87  TYR87       0.1957
     90  OH        18.5450   -2.6380   43.0820 O.3    87  TYR87      -0.2866
     91  N         14.1790    5.6230   45.6060 N.3   120  ALA120     -0.1245
     92  CA        14.5280    5.3250   46.9910 C.3   120  ALA120      0.1562
     93  C         16.0470    5.2110   46.9720 C.2   120  ALA120      0.2260
     94  O         16.5950    4.1990   46.5300 O.2   120  ALA120     -0.2867
     95  CB        13.8870    4.0030   47.4230 C.3   120  ALA120      0.0290
     96  N         19.9110    5.6930   49.0410 N.3   122  GLU122     -0.1245
     97  CA        20.6080    5.7760   50.3220 C.3   122  GLU122      0.1567
     98  C         21.1100    7.2290   50.3790 C.2   122  GLU122      0.2260
     99  O         21.7730    7.7070   49.4590 O.2   122  GLU122     -0.2867
    100  CB        21.7660    4.7740   50.3810 C.3   122  GLU122      0.0388
    101  CG        22.4170    4.6730   51.7620 C.3   122  GLU122      0.1160
    102  CD        23.7540    5.3850   51.8350 C.2   122  GLU122      0.3649
    103  OE1       24.6810    4.9710   51.1090 O.co2 122  GLU122     -0.2457
    104  OE2       23.8850    6.3550   52.6140 O.co2 122  GLU122     -0.2457
    105  N         17.4760    6.7740   54.4230 N.3   156  LEU156     -0.1245
    106  CA        16.8430    6.6900   53.1150 C.3   156  LEU156      0.1561
    107  C         16.3080    8.0380   52.6420 C.2   156  LEU156      0.2260
    108  O         15.6950    8.7840   53.4040 O.2   156  LEU156     -0.2867
    109  CB        15.6900    5.6820   53.1540 C.3   156  LEU156      0.0270
    110  CG        15.0670    5.3230   51.8050 C.3   156  LEU156      0.0019
    111  CD1       16.0780    4.5560   50.9760 C.3   156  LEU156      0.0001
    112  CD2       13.8180    4.4790   52.0120 C.3   156  LEU156      0.0001
@<TRIPOS>BOND
     1    46    45    2
     2    45    44    1
     3    47    44    1
     4    47    48    1
     5    44    43    1
     6    82    81    2
     7    48    49    1
     8    49    50    1
     9    81    80    1
    10    79    80    1
    11    76    75    2
    12    50    51    2
    13    80    83    1
    14    83    84    1
    15    75    74    1
    16    67    68    1
    17    67    64    1
    18    51    52    1
    19    51    53    1
    20    68    69   ar
    21    68    70   ar
    22    69    71   ar
    23    85    84   ar
    24    85    87   ar
    25    78    77    1
    26    84    86   ar
    27    70    72   ar
    28    73    74    1
    29    73    65   am
    30    71    72   ar
    31    64    65    1
    32    64    63    1
    33    74    77    1
    34    65    66    2
    35    87    89   ar
    36    86    88   ar
    37    63    56   am
    38    57    56    2
    39    56    55    1
    40    54    55    1
    41    89    88   ar
    42    89    90    1
    43    55    58    1
    44    58    59    1
    45    59    60    1
    46    12     9    1
    47    91    92    1
    48    60    62   ar
    49    60    61   ar
    50    19    17    1
    51    17    18    1
    52    17    14    1
    53    20    18    1
    54     9    10    1
    55     9     8    1
    56    11    10    2
    57    94    93    2
    58    10    13   am
    59    93    92    1
    60    92    95    1
    61    13    14    1
    62    14    15    1
    63     8     3   am
    64    42    40   am
    65     3     4    2
    66     3     2    1
    67     1     2    1
    68    15    16    2
    69    15    21   am
    70    96    97    1
    71    40    39    1
    72    40    41    2
    73    39    36    1
    74    99    98    2
    75     2     5    1
    76    21    22    1
    77     6     5    1
    78    38    37    2
    79    97    98    1
    80    97   100    1
    81   100   101    1
    82     5     7    1
    83    35    36    1
    84    35    23   am
    85    36    37    1
    86    22    23    1
    87    22    25    1
    88   111   110    1
    89    27    29   ar
    90    27    26   ar
    91   103   102   ar
    92    23    24    2
    93    29    30   ar
    94   101   102    1
    95    26    25    1
    96    26    28   ar
    97   110   112    1
    98   110   109    1
    99   102   104   ar
   100    30    28   ar
   101    30    32   ar
   102    28    31   ar
   103   107   106    1
   104   107   108    2
   105    32    34   ar
   106   106   109    1
   107   106   105    1
   108    31    33   ar
   109    34    33   ar
