@<TRIPOS>MOLECULE
tmp/2j8wB00.pdb
 210 200 0 0 0
SMALL
GASTEIGER

@<TRIPOS>ATOM
      1  N         38.0320    6.0490   72.3010 N.3     9  ILE9       -0.1245
      2  CA        37.1620    6.4280   73.3860 C.3     9  ILE9        0.1561
      3  C         35.6980    6.3630   72.9510 C.2     9  ILE9        0.2260
      4  O         34.8470    5.7820   73.6260 O.2     9  ILE9       -0.2867
      5  CB        37.5280    7.8290   73.9290 C.3     9  ILE9        0.0252
      6  CG1       38.8710    7.7400   74.6440 C.3     9  ILE9        0.0019
      7  CG2       36.4390    8.2980   74.8840 C.3     9  ILE9        0.0019
      8  CD1       39.6100    9.1430   74.7830 C.3     9  ILE9        0.0001
      9  N         34.6210    2.6080   72.4690 N.3    12  ARG12      -0.1231
     10  CA        34.3840    1.8200   73.6550 C.3    12  ARG12       0.1694
     11  C         33.1020    2.2880   74.3350 C.2    12  ARG12       0.2591
     12  O         32.3000    1.4770   74.8170 O.2    12  ARG12      -0.2718
     13  CB        35.6110    1.7870   74.5910 C.3    12  ARG12       0.0321
     14  CG        35.9700    3.0670   75.3290 C.3    12  ARG12       0.0489
     15  CD        37.4470    3.1270   75.5710 C.3    12  ARG12       0.2205
     16  NE        37.7990    4.2380   76.4540 N.pl3  12  ARG12      -0.0865
     17  CZ        39.0410    4.6850   76.6060 C.cat  12  ARG12       0.5346
     18  NH1       40.0290    4.1690   75.9090 N.pl3  12  ARG12       0.1354
     19  NH2       39.2980    5.5950   77.5200 N.pl3  12  ARG12       0.1354
     20  N         32.9130    3.5970   74.4140 N.am   13  GLN13      -0.1979
     21  CA        31.6740    4.1410   74.9640 C.3    13  GLN13       0.1601
     22  C         30.4400    3.6100   74.2180 C.2    13  GLN13       0.2287
     23  O         29.4350    3.2180   74.8130 O.2    13  GLN13      -0.2864
     24  CB        31.7340    5.6730   74.9410 C.3    13  GLN13       0.0394
     25  CG        32.6870    6.2390   75.9520 C.3    13  GLN13       0.0908
     26  CD        32.7030    7.7320   75.9170 C.2    13  GLN13       0.2608
     27  OE1       32.2470    8.3440   74.9450 O.2    13  GLN13      -0.2717
     28  NE2       33.3060    8.3470   76.9560 N.am   13  GLN13      -0.0878
     29  N         29.7790   -0.0390   75.0320 N.3    16  PHE16      -0.1227
     30  CA        29.1910   -0.1870   76.3480 C.3    16  PHE16       0.1736
     31  C         27.7160    0.2530   76.3630 C.2    16  PHE16       0.2596
     32  O         26.8820   -0.3840   77.0220 O.2    16  PHE16      -0.2718
     33  CB        29.9670    0.5760   77.4120 C.3    16  PHE16       0.0547
     34  CG        31.2790   -0.0530   77.7970 C.ar   16  PHE16      -0.0202
     35  CD1       31.3200   -1.3450   78.2610 C.ar   16  PHE16      -0.0042
     36  CD2       32.4640    0.6820   77.7810 C.ar   16  PHE16      -0.0042
     37  CE1       32.5130   -1.9140   78.6690 C.ar   16  PHE16      -0.0003
     38  CE2       33.6580    0.1000   78.1950 C.ar   16  PHE16      -0.0003
     39  CZ        33.6710   -1.1660   78.6090 C.ar   16  PHE16      -0.0000
     40  N         27.3720    1.3020   75.6430 N.am   17  THR17      -0.1953
     41  CA        25.9860    1.7340   75.5340 C.3    17  THR17       0.1897
     42  C         25.0940    0.6160   74.9540 C.2    17  THR17       0.2313
     43  O         24.0320    0.3270   75.4710 O.2    17  THR17      -0.2863
     44  CB        25.8790    3.0160   74.7220 C.3    17  THR17       0.1794
     45  OG1       26.4760    4.0540   75.4970 O.3    17  THR17      -0.2208
     46  CG2       24.4170    3.3670   74.4340 C.3    17  THR17       0.0378
     47  N         25.7510   -2.6140   74.7980 N.3    19  ILE19      -0.1231
     48  CA        25.7740   -3.7150   75.7750 C.3    19  ILE19       0.1692
     49  C         24.7340   -3.4660   76.8540 C.2    19  ILE19       0.2591
     50  O         23.9300   -4.3560   77.1980 O.2    19  ILE19      -0.2718
     51  CB        27.1830   -3.9360   76.3860 C.3    19  ILE19       0.0266
     52  CG1       28.1350   -4.4960   75.3470 C.3    19  ILE19       0.0019
     53  CG2       27.1070   -4.8200   77.6180 C.3    19  ILE19       0.0020
     54  CD1       29.6050   -4.3720   75.6970 C.3    19  ILE19       0.0001
     55  N         24.7510   -2.2550   77.4260 N.am   20  ALA20      -0.1980
     56  CA        23.8390   -1.9280   78.5160 C.3    20  ALA20       0.1597
     57  C         22.3980   -2.0470   78.0750 C.2    20  ALA20       0.2287
     58  O         21.5290   -2.5680   78.7990 O.2    20  ALA20      -0.2864
     59  CB        24.1210   -0.5210   79.0520 C.3    20  ALA20       0.0319
     60  N         21.5940   -5.9060   77.3900 N.3    23  PHE23      -0.1241
     61  CA        21.6380   -6.6060   78.6660 C.3    23  PHE23       0.1605
     62  C         20.4230   -6.2440   79.5140 C.2    23  PHE23       0.2264
     63  O         19.8320   -7.1050   80.1480 O.2    23  PHE23      -0.2867
     64  CB        22.9410   -6.2900   79.4250 C.3    23  PHE23       0.0534
     65  CG        23.0820   -7.0090   80.7210 C.ar   23  PHE23      -0.0203
     66  CD1       23.1820   -8.3790   80.7680 C.ar   23  PHE23      -0.0042
     67  CD2       23.1260   -6.3380   81.9050 C.ar   23  PHE23      -0.0042
     68  CE1       23.2810   -9.0470   81.9630 C.ar   23  PHE23      -0.0003
     69  CE2       23.2360   -7.0060   83.1010 C.ar   23  PHE23      -0.0003
     70  CZ        23.3360   -8.3710   83.1100 C.ar   23  PHE23      -0.0000
     71  N         24.6710   -9.2370   73.2930 N.3    48  VAL48      -0.1245
     72  CA        25.5700   -8.9300   74.3770 C.3    48  VAL48       0.1561
     73  C         26.8920   -9.6560   74.2330 C.2    48  VAL48       0.2260
     74  O         27.9610   -9.0610   74.3980 O.2    48  VAL48      -0.2867
     75  CB        24.9080   -9.1860   75.7620 C.3    48  VAL48       0.0252
     76  CG1       25.9540   -9.0860   76.8830 C.3    48  VAL48       0.0019
     77  CG2       23.7430   -8.2420   75.9900 C.3    48  VAL48       0.0019
     78  N         36.7550   -3.5980   75.2290 N.3    56  LEU56      -0.1245
     79  CA        37.9540   -3.7650   76.0290 C.3    56  LEU56       0.1561
     80  C         39.1880   -3.8800   75.0730 C.2    56  LEU56       0.2260
     81  O         40.3350   -3.8510   75.5310 O.2    56  LEU56      -0.2867
     82  CB        37.7480   -4.9090   77.0920 C.3    56  LEU56       0.0270
     83  CG        36.6040   -4.5660   78.1020 C.3    56  LEU56       0.0019
     84  CD1       36.0550   -5.8000   78.8140 C.3    56  LEU56       0.0001
     85  CD2       37.0220   -3.5600   79.1570 C.3    56  LEU56       0.0001
     86  N         41.2210    0.2600   74.7570 N.3    59  PHE59      -0.1241
     87  CA        41.8780    0.9520   75.8670 C.3    59  PHE59       0.1605
     88  C         43.3980    0.8790   75.6870 C.2    59  PHE59       0.2264
     89  O         44.1460    0.6210   76.6320 O.2    59  PHE59      -0.2867
     90  CB        41.4650    0.3790   77.2190 C.3    59  PHE59       0.0534
     91  CG        40.0520    0.6510   77.6110 C.ar   59  PHE59      -0.0203
     92  CD1       39.7380    1.7070   78.4260 C.ar   59  PHE59      -0.0042
     93  CD2       39.0310   -0.2150   77.2570 C.ar   59  PHE59      -0.0042
     94  CE1       38.4860    1.9540   78.8690 C.ar   59  PHE59      -0.0003
     95  CE2       37.7450    0.0350   77.6610 C.ar   59  PHE59      -0.0003
     96  CZ        37.4390    1.0760   78.4900 C.ar   59  PHE59      -0.0000
     97  N         36.0900   10.9470   78.1960 N.3    69  THR69      -0.1203
     98  CA        36.3390    9.7090   78.8480 C.3    69  THR69       0.1994
     99  C         36.0880    9.7040   80.3660 C.2    69  THR69       0.2618
    100  O         36.3830   10.6680   81.0720 O.2    69  THR69      -0.2717
    101  CB        37.7320    9.1420   78.5490 C.3    69  THR69       0.1784
    102  OG1       37.7510    7.7730   79.0100 O.3    69  THR69      -0.2211
    103  CG2       38.8630    9.9170   79.2270 C.3    69  THR69       0.0376
    104  N         35.5240    8.5590   80.8320 N.am   70  GLU70      -0.1965
    105  CA        35.3280    8.2970   82.2420 C.3    70  GLU70       0.1733
    106  C         36.2010    7.1660   82.7550 C.2    70  GLU70       0.2616
    107  O         35.9970    6.6800   83.8810 O.2    70  GLU70      -0.2715
    108  CB        33.8710    7.9830   82.5430 C.3    70  GLU70       0.0429
    109  CG        32.9120    9.0790   82.1880 C.3    70  GLU70       0.1163
    110  CD        31.4540    8.7200   82.4780 C.2    70  GLU70       0.3649
    111  OE1       31.0000    7.5650   82.1440 O.co2  70  GLU70      -0.2457
    112  OE2       30.7240    9.5720   83.0170 O.co2  70  GLU70      -0.2457
    113  N         37.1710    6.7340   81.9710 N.am   71  ALA71      -0.1977
    114  CA        38.1070    5.7300   82.3960 C.3    71  ALA71       0.1597
    115  C         39.0850    6.3810   83.4330 C.2    71  ALA71       0.2287
    116  O         39.7000    7.4510   83.2170 O.2    71  ALA71      -0.2864
    117  CB        38.8930    5.1910   81.2200 C.3    71  ALA71       0.0319
    118  N         43.0990    2.1500   84.9820 N.3    75  VAL75      -0.1245
    119  CA        42.9900    1.2510   83.8280 C.3    75  VAL75       0.1561
    120  C         44.3550    0.9370   83.2440 C.2    75  VAL75       0.2260
    121  O         44.6600   -0.1980   82.8830 O.2    75  VAL75      -0.2867
    122  CB        42.0470    1.8430   82.7480 C.3    75  VAL75       0.0252
    123  CG1       42.1830    1.1280   81.4460 C.3    75  VAL75       0.0019
    124  CG2       40.5940    1.9140   83.2290 C.3    75  VAL75       0.0019
    125  N         42.8490   -4.4180   85.6070 N.3    82  PHE82      -0.1241
    126  CA        41.8470   -4.1540   84.5830 C.3    82  PHE82       0.1605
    127  C         41.5920   -5.4070   83.7710 C.2    82  PHE82       0.2264
    128  O         40.4310   -5.7540   83.4980 O.2    82  PHE82      -0.2867
    129  CB        42.2620   -2.9860   83.6930 C.3    82  PHE82       0.0534
    130  CG        41.1620   -2.5070   82.7730 C.ar   82  PHE82      -0.0203
    131  CD1       40.0770   -1.8580   83.3000 C.ar   82  PHE82      -0.0042
    132  CD2       41.2400   -2.6400   81.4140 C.ar   82  PHE82      -0.0042
    133  CE1       39.0630   -1.3750   82.4910 C.ar   82  PHE82      -0.0003
    134  CE2       40.2030   -2.1310   80.5820 C.ar   82  PHE82      -0.0003
    135  CZ        39.1540   -1.5020   81.1390 C.ar   82  PHE82      -0.0000
    136  N         39.5010   -7.8010   85.7550 N.3    85  ALA85      -0.1231
    137  CA        38.1030   -7.3830   85.7160 C.3    85  ALA85       0.1694
    138  C         37.4510   -7.7100   84.3680 C.2    85  ALA85       0.2591
    139  O         36.2870   -8.1490   84.3010 O.2    85  ALA85      -0.2718
    140  CB        37.9960   -5.8910   86.0090 C.3    85  ALA85       0.0304
    141  N         38.2080   -7.5390   83.2980 N.am   86  ALA86      -0.1980
    142  CA        37.7450   -7.9030   81.9630 C.3    86  ALA86       0.1597
    143  C         37.5180   -9.4160   81.8460 C.2    86  ALA86       0.2287
    144  O         36.5050   -9.8550   81.3040 O.2    86  ALA86      -0.2864
    145  CB        38.7450   -7.4260   80.8830 C.3    86  ALA86       0.0319
    146  N         34.4210  -10.4660   83.6160 N.3    89  PHE89      -0.1241
    147  CA        33.2830  -10.1600   82.7450 C.3    89  PHE89       0.1605
    148  C         33.1210  -11.1850   81.6550 C.2    89  PHE89       0.2264
    149  O         32.0000  -11.6530   81.4190 O.2    89  PHE89      -0.2867
    150  CB        33.4470   -8.7480   82.2180 C.3    89  PHE89       0.0534
    151  CG        32.4190   -8.3230   81.2230 C.ar   89  PHE89      -0.0203
    152  CD1       31.0450   -8.3060   81.5090 C.ar   89  PHE89      -0.0042
    153  CD2       32.8110   -7.8870   79.9650 C.ar   89  PHE89      -0.0042
    154  CE1       30.1440   -7.8760   80.5550 C.ar   89  PHE89      -0.0003
    155  CE2       31.8810   -7.4280   79.0490 C.ar   89  PHE89      -0.0003
    156  CZ        30.5430   -7.4770   79.3440 C.ar   89  PHE89      -0.0000
    157  N         26.6740  -11.4820   85.7370 N.3   115  THR115     -0.1218
    158  CA        27.1410  -10.5220   84.7290 C.3   115  THR115      0.1862
    159  C         27.0630   -9.1030   85.2780 C.2   115  THR115      0.2287
    160  O         28.0090   -8.3290   85.2050 O.2   115  THR115     -0.2866
    161  CB        26.3980  -10.7050   83.4180 C.3   115  THR115      0.1770
    162  OG1       26.6420  -12.0050   82.8880 O.3   115  THR115     -0.2211
    163  CG2       26.8760   -9.6900   82.3760 C.3   115  THR115      0.0375
    164  N         29.8020   -8.2930   87.5200 N.3   118  ALA118     -0.1231
    165  CA        31.0430   -8.0460   86.7740 C.3   118  ALA118      0.1694
    166  C         31.0910   -6.6090   86.1950 C.2   118  ALA118      0.2592
    167  O         32.1530   -5.9480   86.2040 O.2   118  ALA118     -0.2718
    168  CB        31.2420   -9.0760   85.6860 C.3   118  ALA118      0.0304
    169  N         29.9280   -6.1010   85.7420 N.am  119  CYS119     -0.1970
    170  CA        29.8780   -4.7100   85.2980 C.3   119  CYS119      0.1712
    171  C         30.2820   -3.7930   86.4770 C.2   119  CYS119      0.2296
    172  O         31.1770   -2.9110   86.3810 O.2   119  CYS119     -0.2864
    173  CB        28.5020   -4.2810   84.8230 C.3   119  CYS119      0.0983
    174  SG        27.5670   -5.3930   83.7480 S.3   119  CYS119     -0.0798
    175  N         33.9820   -3.9120   87.8330 N.3   122  CYS122     -0.1221
    176  CA        34.9210   -3.1640   87.0090 C.3   122  CYS122      0.1808
    177  C         34.6230   -1.7210   87.2090 C.2   122  CYS122      0.2601
    178  O         35.5780   -0.9490   87.4370 O.2   122  CYS122     -0.2717
    179  CB        34.8110   -3.5450   85.5330 C.3   122  CYS122      0.0970
    180  SG        36.1200   -2.6060   84.6900 S.3   122  CYS122     -0.0800
    181  N         33.4120   -1.2350   87.1800 N.am  123  HIS123     -0.1975
    182  CA        33.1350    0.1860   87.3110 C.3   123  HIS123      0.1656
    183  C         33.6470    0.7580   88.6290 C.2   123  HIS123      0.2291
    184  O         34.2060    1.8640   88.6750 O.2   123  HIS123     -0.2864
    185  CB        31.6730    0.5170   87.1810 C.3   123  HIS123      0.0771
    186  CG        31.1440    0.3220   85.7920 C.ar  123  HIS123      0.0820
    187  ND1       29.8370    0.5770   85.4540 N.ar  123  HIS123     -0.2267
    188  CD2       31.7700   -0.0270   84.6400 C.ar  123  HIS123      0.1154
    189  CE1       29.6700    0.3560   84.1530 C.ar  123  HIS123      0.1986
    190  NE2       30.8340   -0.0030   83.6380 N.ar  123  HIS123     -0.2212
    191  N         37.4450    1.1870   88.1170 N.3   126  PHE126     -0.1227
    192  CA        38.0020    1.6520   86.8840 C.3   126  PHE126      0.1736
    193  C         37.2140    2.7160   86.1380 C.2   126  PHE126      0.2595
    194  O         37.6890    3.2480   85.1170 O.2   126  PHE126     -0.2718
    195  CB        38.3620    0.4880   85.9650 C.3   126  PHE126      0.0547
    196  CG        39.3930   -0.4370   86.5210 C.ar  126  PHE126     -0.0202
    197  CD1       40.7290   -0.0180   86.6410 C.ar  126  PHE126     -0.0042
    198  CD2       39.0600   -1.7250   86.9650 C.ar  126  PHE126     -0.0042
    199  CE1       41.6700   -0.8920   87.1360 C.ar  126  PHE126     -0.0003
    200  CE2       40.0050   -2.5750   87.4740 C.ar  126  PHE126     -0.0003
    201  CZ        41.3100   -2.1510   87.5810 C.ar  126  PHE126     -0.0000
    202  N         36.0200    3.0380   86.6090 N.am  127  LYS127     -0.1980
    203  CA        35.1540    4.0180   85.9790 C.3   127  LYS127      0.1596
    204  C         34.7760    5.1440   86.9170 C.2   127  LYS127      0.2287
    205  O         34.3640    4.8910   88.0320 O.2   127  LYS127     -0.2864
    206  CB        33.8820    3.3620   85.4110 C.3   127  LYS127      0.0298
    207  CG        32.9740    4.3370   84.6660 C.3   127  LYS127      0.0038
    208  CD        31.7040    3.6370   84.1460 C.3   127  LYS127      0.0206
    209  CE        30.7350    4.5780   83.4740 C.3   127  LYS127      0.1093
    210  NZ        30.1650    5.6690   84.3740 N.3   127  LYS127     -0.1314
@<TRIPOS>BOND
     1     1     2    1
     2     9    10    1
     3     3     2    1
     4     3     4    2
     5    71    72    1
     6     2     5    1
     7    10    11    1
     8    10    13    1
     9     5     6    1
    10     5     7    1
    11    22    23    2
    12    22    21    1
    13    73    72    1
    14    73    74    2
    15    11    20   am
    16    11    12    2
    17    72    75    1
    18    20    21    1
    19    46    44    1
    20    13    14    1
    21     6     8    1
    22    44    45    1
    23    44    41    1
    24    86    87    1
    25    47    48    1
    26    24    21    1
    27    24    25    1
    28    27    26    2
    29    42    43    2
    30    42    41    1
    31    29    30    1
    32    80    81    2
    33    80    79    1
    34    78    79    1
    35    14    15    1
    36    52    54    1
    37    52    51    1
    38    41    40    1
    39    15    16    1
    40    40    31   am
    41    88    87    1
    42    88    89    2
    43    75    77    1
    44    75    76    1
    45    48    51    1
    46    48    49    1
    47    87    90    1
    48    18    17    1
    49    26    25    1
    50    26    28   am
    51    79    82    1
    52    30    31    1
    53    30    33    1
    54    31    32    2
    55    51    53    1
    56    16    17    2
    57    17    19    1
    58    49    50    2
    59    49    55   am
    60    82    83    1
    61    90    91    1
    62    93    91   ar
    63    93    95   ar
    64    60    61    1
    65    33    34    1
    66    55    56    1
    67    91    92   ar
    68    95    96   ar
    69    36    34   ar
    70    36    38   ar
    71    34    35   ar
    72    57    56    1
    73    57    58    2
    74    83    84    1
    75    83    85    1
    76    38    39   ar
    77    97    98    1
    78    35    37   ar
    79    92    94   ar
    80    96    94   ar
    81    56    59    1
    82   101    98    1
    83   101   102    1
    84   101   103    1
    85    39    37   ar
    86    61    64    1
    87    61    62    1
    88    98    99    1
    89   155   156   ar
    90   155   153   ar
    91   156   154   ar
    92    64    65    1
    93    62    63    2
    94   153   151   ar
    95    99   104   am
    96    99   100    2
    97   154   152   ar
    98   134   135   ar
    99   134   132   ar
   100    65    66   ar
   101    65    67   ar
   102    66    68   ar
   103   104   105    1
   104   145   142    1
   105   135   133   ar
   106   117   114    1
   107   151   152   ar
   108   151   150    1
   109   144   143    2
   110   132   130   ar
   111   149   148    2
   112   123   122    1
   113   148   147    1
   114   143   142    1
   115    67    69   ar
   116    68    70   ar
   117   142   141    1
   118   113   114    1
   119   113   106   am
   120   111   110   ar
   121   109   110    1
   122   109   108    1
   123   150   147    1
   124   105   108    1
   125   105   106    1
   126   163   161    1
   127   114   115    1
   128   110   112   ar
   129   133   131   ar
   130   147   146    1
   131   122   124    1
   132   122   119    1
   133   106   107    2
   134   130   131   ar
   135   130   129    1
   136   121   120    2
   137   162   161    1
   138    69    70   ar
   139   116   115    2
   140   120   119    1
   141   141   138   am
   142   161   158    1
   143   209   208    1
   144   209   210    1
   145   128   127    2
   146   190   189   ar
   147   190   188   ar
   148   129   126    1
   149   174   173    1
   150   127   126    1
   151   119   118    1
   152   208   207    1
   153   189   187   ar
   154   139   138    2
   155   138   137    1
   156   126   125    1
   157   188   186   ar
   158   207   206    1
   159   180   179    1
   160   158   159    1
   161   158   157    1
   162   173   170    1
   163   194   193    2
   164   160   159    2
   165   170   169    1
   166   170   171    1
   167   206   203    1
   168   187   186   ar
   169   179   176    1
   170   168   165    1
   171   137   136    1
   172   137   140    1
   173   169   166   am
   174   186   185    1
   175   195   196    1
   176   195   192    1
   177   203   202    1
   178   203   204    1
   179   193   202   am
   180   193   192    1
   181   166   167    2
   182   166   165    1
   183   172   171    2
   184   196   197   ar
   185   196   198   ar
   186   197   199   ar
   187   165   164    1
   188   192   191    1
   189   204   205    2
   190   198   200   ar
   191   176   177    1
   192   176   175    1
   193   199   201   ar
   194   181   177   am
   195   181   182    1
   196   185   182    1
   197   177   178    2
   198   182   183    1
   199   200   201   ar
   200   183   184    2
