@<TRIPOS>MOLECULE
tmp/2j90B00.pdb
 139 128 0 0 0
SMALL
GASTEIGER

@<TRIPOS>ATOM
      1  N         46.2620   32.0780  -22.4730 N.3     8  LEU8       -0.1231
      2  CA        47.4750   31.2730  -22.5730 C.3     8  LEU8        0.1693
      3  C         47.1850   29.8030  -22.8710 C.2     8  LEU8        0.2593
      4  O         47.9390   29.1500  -23.5940 O.2     8  LEU8       -0.2718
      5  CB        48.2870   31.3880  -21.2830 C.3     8  LEU8        0.0284
      6  CG        48.8300   32.7800  -20.9520 C.3     8  LEU8        0.0019
      7  CD1       49.4420   32.7920  -19.5580 C.3     8  LEU8        0.0001
      8  CD2       49.8510   33.2310  -21.9970 C.3     8  LEU8        0.0001
      9  N         46.1050   29.2740  -22.3020 N.am    9  GLY9       -0.1942
     10  CA        45.7490   27.8750  -22.5200 C.3     9  GLY9        0.2014
     11  C         44.3960   27.5130  -21.9550 C.2     9  GLY9        0.2640
     12  O         43.7670   28.3120  -21.2610 O.2     9  GLY9       -0.2714
     13  N         43.9450   26.2980  -22.2460 N.am   10  SER10      -0.1935
     14  CA        42.6380   25.8540  -21.7900 C.3    10  SER10       0.2055
     15  C         42.5520   24.3370  -21.6250 C.2    10  SER10       0.2643
     16  O         43.2910   23.5790  -22.2730 O.2    10  SER10      -0.2714
     17  CB        41.5540   26.3390  -22.7620 C.3    10  SER10       0.2130
     18  OG        41.7420   25.7950  -24.0560 O.3    10  SER10      -0.2179
     19  N         41.6450   23.9190  -20.7440 N.am   11  GLY11      -0.1954
     20  CA        41.2850   22.5130  -20.5650 C.3    11  GLY11       0.1869
     21  C         39.7760   22.3610  -20.5630 C.2    11  GLY11       0.2309
     22  O         39.0500   23.3280  -20.7920 O.2    11  GLY11      -0.2863
     23  N         38.6460   24.6300  -17.7040 N.3    14  ALA14      -0.1245
     24  CA        39.5500   25.6940  -17.2540 C.3    14  ALA14       0.1562
     25  C         40.0940   26.5090  -18.4180 C.2    14  ALA14       0.2260
     26  O         40.3080   25.9780  -19.4990 O.2    14  ALA14      -0.2867
     27  CB        40.6960   25.1100  -16.4470 C.3    14  ALA14       0.0290
     28  N         43.1480   29.7260  -18.9260 N.3    16  VAL16      -0.1245
     29  CA        44.2300   30.4640  -18.2680 C.3    16  VAL16       0.1561
     30  C         44.5570   31.7320  -19.0530 C.2    16  VAL16       0.2260
     31  O         44.8420   31.6640  -20.2470 O.2    16  VAL16      -0.2867
     32  CB        45.5260   29.6110  -18.1400 C.3    16  VAL16       0.0252
     33  CG1       46.6540   30.4240  -17.5180 C.3    16  VAL16       0.0019
     34  CG2       45.2670   28.3580  -17.3160 C.3    16  VAL16       0.0019
     35  N         49.5960   34.3330  -13.8540 N.3    25  ALA25      -0.1245
     36  CA        48.6670   33.5380  -14.6570 C.3    25  ALA25       0.1562
     37  C         47.3450   33.4010  -13.9100 C.2    25  ALA25       0.2260
     38  O         47.3300   33.0770  -12.7160 O.2    25  ALA25      -0.2867
     39  CB        49.2520   32.1580  -14.9470 C.3    25  ALA25       0.0290
     40  N         43.9910   31.3970  -13.6740 N.3    27  LYS27      -0.1245
     41  CA        43.2850   30.1710  -14.0320 C.3    27  LYS27       0.1561
     42  C         41.8150   30.2890  -13.6510 C.2    27  LYS27       0.2260
     43  O         41.4850   30.4070  -12.4750 O.2    27  LYS27      -0.2867
     44  CB        43.9250   28.9580  -13.3480 C.3    27  LYS27       0.0271
     45  CG        43.3420   27.6180  -13.7660 C.3    27  LYS27       0.0035
     46  CD        44.1300   26.4600  -13.1520 C.3    27  LYS27       0.0206
     47  CE        43.4890   25.1290  -13.4650 C.3    27  LYS27       0.1093
     48  NZ        44.2850   23.9780  -12.9530 N.3    27  LYS27      -0.1314
     49  N         54.7640   25.2440   -9.8980 N.3    61  ILE61      -0.1245
     50  CA        54.1340   26.5670   -9.8340 C.3    61  ILE61       0.1561
     51  C         53.5480   26.8540   -8.4560 C.2    61  ILE61       0.2260
     52  O         53.0930   25.9470   -7.7610 O.2    61  ILE61      -0.2867
     53  CB        53.0220   26.7600  -10.9110 C.3    61  ILE61       0.0252
     54  CG1       51.9390   25.6710  -10.7890 C.3    61  ILE61       0.0019
     55  CG2       53.6580   26.8190  -12.3040 C.3    61  ILE61       0.0019
     56  CD1       50.6410   25.9610  -11.5290 C.3    61  ILE61       0.0001
     57  N         48.2060   32.3280  -10.2480 N.3    77  LEU77      -0.1231
     58  CA        49.3360   31.4140  -10.1920 C.3    77  LEU77       0.1693
     59  C         50.5820   32.0500  -10.7840 C.2    77  LEU77       0.2592
     60  O         50.5010   33.0180  -11.5350 O.2    77  LEU77      -0.2718
     61  CB        49.0190   30.1290  -10.9690 C.3    77  LEU77       0.0284
     62  CG        47.7770   29.3280  -10.5570 C.3    77  LEU77       0.0019
     63  CD1       47.4810   28.2540  -11.5860 C.3    77  LEU77       0.0001
     64  CD2       47.9550   28.7110   -9.1750 C.3    77  LEU77       0.0001
     65  N         51.7310   31.4740  -10.4400 N.am   78  GLU78      -0.1966
     66  CA        53.0170   31.8790  -10.9890 C.3    78  GLU78       0.1733
     67  C         53.0040   31.7440  -12.5010 C.2    78  GLU78       0.2616
     68  O         52.6830   30.6840  -13.0250 O.2    78  GLU78      -0.2715
     69  CB        54.1250   30.9890  -10.4340 C.3    78  GLU78       0.0429
     70  CG        55.5340   31.3750  -10.8690 C.3    78  GLU78       0.1163
     71  CD        56.5810   30.4040  -10.3670 C.2    78  GLU78       0.3649
     72  OE1       56.2130   29.4000   -9.7130 O.co2  78  GLU78      -0.2457
     73  OE2       57.7760   30.6400  -10.6340 O.co2  78  GLU78      -0.2457
     74  N         53.3800   32.8170  -13.1890 N.am   79  LEU79      -0.1963
     75  CA        53.4520   32.8320  -14.6460 C.3    79  LEU79       0.1728
     76  C         54.7130   32.1290  -15.1460 C.2    79  LEU79       0.2616
     77  O         55.8230   32.4240  -14.6800 O.2    79  LEU79      -0.2715
     78  CB        53.4410   34.2810  -15.1450 C.3    79  LEU79       0.0311
     79  CG        53.4220   34.5140  -16.6570 C.3    79  LEU79       0.0022
     80  CD1       52.1790   33.8970  -17.3000 C.3    79  LEU79       0.0001
     81  CD2       53.5090   36.0100  -16.9400 C.3    79  LEU79       0.0001
     82  N         54.5320   31.1950  -16.0830 N.am   80  VAL80      -0.1963
     83  CA        55.6440   30.5470  -16.7890 C.3    80  VAL80       0.1727
     84  C         55.6410   30.9910  -18.2610 C.2    80  VAL80       0.2616
     85  O         54.6090   30.9430  -18.9320 O.2    80  VAL80      -0.2715
     86  CB        55.5880   29.0000  -16.6690 C.3    80  VAL80       0.0290
     87  CG1       55.5560   28.5830  -15.2040 C.3    80  VAL80       0.0023
     88  CG2       54.3810   28.4300  -17.4000 C.3    80  VAL80       0.0023
     89  N         56.7960   31.4350  -18.7510 N.am   81  SER81      -0.1950
     90  CA        56.8880   32.0670  -20.0740 C.3    81  SER81       0.1924
     91  C         57.8220   31.3530  -21.0590 C.2    81  SER81       0.2314
     92  O         58.0190   31.8370  -22.1770 O.2    81  SER81      -0.2863
     93  CB        57.3390   33.5230  -19.9130 C.3    81  SER81       0.2116
     94  OG        56.5150   34.2050  -18.9850 O.3    81  SER81      -0.2180
     95  N         57.3210   28.2840  -22.2760 N.3    83  GLY83      -0.1225
     96  CA        56.5640   27.3150  -23.0560 C.3    83  GLY83       0.1811
     97  C         56.7020   25.9000  -22.5260 C.2    83  GLY83       0.2280
     98  O         57.2250   25.6800  -21.4300 O.2    83  GLY83      -0.2866
     99  N         52.7910   18.1720  -21.9850 N.3   126  GLU126     -0.1231
    100  CA        52.0630   19.4510  -21.9880 C.3   126  GLU126      0.1699
    101  C         51.9810   20.1040  -20.6060 C.2   126  GLU126      0.2592
    102  O         51.7130   21.2970  -20.5070 O.2   126  GLU126     -0.2718
    103  CB        50.6430   19.3010  -22.5500 C.3   126  GLU126      0.0402
    104  CG        50.5460   18.5580  -23.8870 C.3   126  GLU126      0.1161
    105  CD        50.2370   17.0660  -23.7070 C.2   126  GLU126      0.3649
    106  OE1       49.0800   16.6610  -24.0040 O.co2 126  GLU126     -0.2457
    107  OE2       51.1450   16.3130  -23.2500 O.co2 126  GLU126     -0.2457
    108  N         52.2040   19.3290  -19.5430 N.am  127  ASN127     -0.1974
    109  CA        52.1830   19.8660  -18.1760 C.3   127  ASN127      0.1688
    110  C         53.5870   20.1140  -17.6190 C.2   127  ASN127      0.2292
    111  O         53.7560   20.3850  -16.4270 O.2   127  ASN127     -0.2864
    112  CB        51.3690   18.9360  -17.2500 C.3   127  ASN127      0.1181
    113  CG        49.8610   19.0280  -17.4910 C.2   127  ASN127      0.2629
    114  OD1       49.3430   20.0640  -17.9210 O.2   127  ASN127     -0.2716
    115  ND2       49.1470   17.9570  -17.1640 N.am  127  ASN127     -0.0877
    116  N         56.5560   22.6250  -18.1770 N.3   129  MET129     -0.1245
    117  CA        56.8280   23.9180  -18.7750 C.3   129  MET129      0.1570
    118  C         58.2010   24.3980  -18.3610 C.2   129  MET129      0.2261
    119  O         58.8440   23.8030  -17.4960 O.2   129  MET129     -0.2867
    120  CB        55.8030   24.9570  -18.3120 C.3   129  MET129      0.0387
    121  CG        54.3550   24.5700  -18.5170 C.3   129  MET129      0.0595
    122  SD        53.8190   24.7780  -20.2060 S.3   129  MET129     -0.1393
    123  CE        53.6190   26.5550  -20.2840 C.3   129  MET129      0.0692
    124  N         52.8940   22.0510  -14.0280 N.3   143  ILE143     -0.1231
    125  CA        51.5690   22.6650  -13.9170 C.3   143  ILE143      0.1692
    126  C         50.4500   21.6150  -13.8470 C.2   143  ILE143      0.2592
    127  O         50.7040   20.3980  -13.8820 O.2   143  ILE143     -0.2718
    128  CB        51.3030   23.6240  -15.1020 C.3   143  ILE143      0.0266
    129  CG1       51.2620   22.8470  -16.4250 C.3   143  ILE143      0.0019
    130  CG2       52.3540   24.7200  -15.1420 C.3   143  ILE143      0.0020
    131  CD1       50.7110   23.6450  -17.6000 C.3   143  ILE143      0.0001
    132  N         49.2190   22.1120  -13.7300 N.am  144  ASP144     -0.1974
    133  CA        47.9900   21.3180  -13.7860 C.3   144  ASP144      0.1709
    134  C         47.8270   20.2840  -12.6720 C.2   144  ASP144      0.2293
    135  O         47.9980   19.0860  -12.8860 O.2   144  ASP144     -0.2864
    136  CB        47.8110   20.6490  -15.1580 C.3   144  ASP144      0.1436
    137  CG        46.3930   20.1180  -15.3680 C.2   144  ASP144      0.3671
    138  OD1       45.5600   20.2560  -14.4380 O.co2 144  ASP144     -0.2456
    139  OD2       46.1090   19.5720  -16.4640 O.co2 144  ASP144     -0.2456
@<TRIPOS>BOND
     1    18    17    1
     2   106   105   ar
     3   104   105    1
     4   104   103    1
     5   105   107   ar
     6     4     3    2
     7    96    97    1
     8    96    95    1
     9     3     2    1
    10     3     9   am
    11    17    14    1
    12     2     1    1
    13     2     5    1
    14   103   100    1
    15    97    98    2
    16    10     9    1
    17    10    11    1
    18    16    15    2
    19    13    11   am
    20    13    14    1
    21    92    91    2
    22     8     6    1
    23   100    99    1
    24   100   101    1
    25    11    12    2
    26    14    15    1
    27    15    19   am
    28     5     6    1
    29    91    90    1
    30     6     7    1
    31    22    21    2
    32    19    20    1
    33   101   102    2
    34   101   108   am
    35    20    21    1
    36   123   122    1
    37    31    30    2
    38   122   121    1
    39    90    93    1
    40    90    89    1
    41    93    94    1
    42   108   109    1
    43    26    25    2
    44    30    29    1
    45    85    84    2
    46    28    29    1
    47   117   118    1
    48   117   120    1
    49   117   116    1
    50    89    84   am
    51   121   120    1
    52    25    24    1
    53   118   119    2
    54    29    32    1
    55    84    83    1
    56   109   110    1
    57   109   112    1
    58    32    33    1
    59    32    34    1
    60   114   113    2
    61    23    24    1
    62   110   111    2
    63   131   129    1
    64   113   112    1
    65   113   115   am
    66    88    86    1
    67    80    79    1
    68    24    27    1
    69    81    79    1
    70    83    86    1
    71    83    82    1
    72    86    87    1
    73    79    78    1
    74   139   137   ar
    75   129   128    1
    76    82    76   am
    77   137   136    1
    78   137   138   ar
    79   136   133    1
    80    76    77    2
    81    76    75    1
    82    78    75    1
    83   130   128    1
    84   128   125    1
    85    39    36    1
    86    36    37    1
    87    36    35    1
    88    75    74    1
    89    41    40    1
    90    41    42    1
    91    41    44    1
    92   124   125    1
    93   125   126    1
    94    37    38    2
    95   127   126    2
    96   126   132   am
    97   133   132    1
    98   133   134    1
    99    45    44    1
   100    45    46    1
   101    42    43    2
   102    47    46    1
   103    47    48    1
   104    74    67   am
   105    68    67    2
   106   135   134    2
   107    67    66    1
   108    55    53    1
   109    63    62    1
   110    60    59    2
   111    56    54    1
   112    66    65    1
   113    66    69    1
   114    61    62    1
   115    61    58    1
   116    53    54    1
   117    53    50    1
   118    70    69    1
   119    70    71    1
   120    59    65   am
   121    59    58    1
   122    73    71   ar
   123    62    64    1
   124    71    72   ar
   125    57    58    1
   126    49    50    1
   127    50    51    1
   128    51    52    2
