@<TRIPOS>MOLECULE
tmp/2j90A00.pdb
 130 119 0 0 0
SMALL
GASTEIGER

@<TRIPOS>ATOM
      1  N         25.7080    6.4120   25.5020 N.3    15  LEU15      -0.1231
      2  CA        24.8910    5.4570   24.7700 C.3    15  LEU15       0.1693
      3  C         25.7290    4.5170   23.9150 C.2    15  LEU15       0.2593
      4  O         25.3570    3.3570   23.7040 O.2    15  LEU15      -0.2718
      5  CB        23.9100    6.2050   23.8800 C.3    15  LEU15       0.0284
      6  CG        22.8590    7.0600   24.5710 C.3    15  LEU15       0.0019
      7  CD1       22.0790    7.7850   23.4910 C.3    15  LEU15       0.0001
      8  CD2       21.9580    6.2290   25.4920 C.3    15  LEU15       0.0001
      9  N         26.8530    5.0210   23.4170 N.am   16  GLY16      -0.1942
     10  CA        27.7490    4.2150   22.6050 C.3    16  GLY16       0.2014
     11  C         29.0380    4.9530   22.3410 C.2    16  GLY16       0.2640
     12  O         29.1590    6.1430   22.6350 O.2    16  GLY16      -0.2714
     13  N         30.0110    4.2390   21.7890 N.am   17  SER17      -0.1935
     14  CA        31.2750    4.8430   21.4360 C.3    17  SER17       0.2055
     15  C         31.9930    4.0690   20.3420 C.2    17  SER17       0.2643
     16  O         31.7130    2.8860   20.1070 O.2    17  SER17      -0.2714
     17  CB        32.1770    4.9120   22.6740 C.3    17  SER17       0.2130
     18  OG        32.3630    3.6240   23.2010 O.3    17  SER17      -0.2179
     19  N         32.9360    4.7580   19.7070 N.am   18  GLY18      -0.1954
     20  CA        33.8480    4.1900   18.6990 C.3    18  GLY18       0.1869
     21  C         35.2450    4.6670   19.0510 C.2    18  GLY18       0.2309
     22  O         35.4200    5.3120   20.0870 O.2    18  GLY18      -0.2863
     23  N         34.8600    8.5290   18.8770 N.3    21  ALA21      -0.1245
     24  CA        33.5070    9.0370   19.0300 C.3    21  ALA21       0.1562
     25  C         32.8560    8.5220   20.2930 C.2    21  ALA21       0.2260
     26  O         33.0070    7.3650   20.6500 O.2    21  ALA21      -0.2867
     27  CB        32.6400    8.6920   17.8030 C.3    21  ALA21       0.0290
     28  N         28.9070    8.8500   22.1060 N.3    23  VAL23      -0.1245
     29  CA        27.5250    9.2820   21.9430 C.3    23  VAL23       0.1561
     30  C         26.8560    9.3130   23.3250 C.2    23  VAL23       0.2260
     31  O         26.8390    8.3020   24.0400 O.2    23  VAL23      -0.2867
     32  CB        26.7520    8.3590   20.9870 C.3    23  VAL23       0.0252
     33  CG1       25.2750    8.7790   20.9020 C.3    23  VAL23       0.0019
     34  CG2       27.4180    8.3560   19.5820 C.3    23  VAL23       0.0019
     35  N         20.6190   12.7300   20.6540 N.3    36  ALA36      -0.1245
     36  CA        21.9210   12.1020   20.8840 C.3    36  ALA36       0.1562
     37  C         23.0320   13.0540   20.4420 C.2    36  ALA36       0.2260
     38  O         23.0000   13.6010   19.3340 O.2    36  ALA36      -0.2867
     39  CB        22.0310   10.7820   20.1360 C.3    36  ALA36       0.0290
     40  N         26.8450   13.3870   19.5120 N.3    38  LYS38      -0.1245
     41  CA        27.9940   12.6120   19.0580 C.3    38  LYS38       0.1561
     42  C         29.2250   13.5000   19.0830 C.2    38  LYS38       0.2260
     43  O         29.3370   14.4460   18.3100 O.2    38  LYS38      -0.2867
     44  CB        27.7440   12.0370   17.6530 C.3    38  LYS38       0.0271
     45  CG        28.8980   11.2370   17.0690 C.3    38  LYS38       0.0035
     46  CD        28.6220   10.7690   15.6470 C.3    38  LYS38       0.0206
     47  CE        29.6970    9.7890   15.1860 C.3    38  LYS38       0.1093
     48  NZ        29.4100    9.1010   13.8800 N.3    38  LYS38      -0.1314
     49  N         18.8320    8.6050   10.6790 N.3    72  ILE72      -0.1245
     50  CA        18.9760    9.6380   11.6930 C.3    72  ILE72       0.1561
     51  C         19.1090   11.0060   11.0150 C.2    72  ILE72       0.2260
     52  O         19.6180   11.1280    9.8830 O.2    72  ILE72      -0.2867
     53  CB        20.1810    9.4090   12.6660 C.3    72  ILE72       0.0252
     54  CG1       21.5130    9.2620   11.8950 C.3    72  ILE72       0.0019
     55  CG2       19.8890    8.2410   13.6040 C.3    72  ILE72       0.0019
     56  CD1       22.7800    9.3570   12.7550 C.3    72  ILE72       0.0001
     57  N         22.1520   14.7950   17.0590 N.3    88  LEU88      -0.1231
     58  CA        21.4960   13.8460   16.1780 C.3    88  LEU88       0.1693
     59  C         20.1790   13.3610   16.7930 C.2    88  LEU88       0.2592
     60  O         19.9830   13.4350   18.0150 O.2    88  LEU88      -0.2718
     61  CB        22.4330   12.6580   15.9090 C.3    88  LEU88       0.0284
     62  CG        23.7870   12.9830   15.2480 C.3    88  LEU88       0.0019
     63  CD1       24.7390   11.7730   15.3630 C.3    88  LEU88       0.0001
     64  CD2       23.5780   13.3710   13.7970 C.3    88  LEU88       0.0001
     65  N         19.2690   12.9010   15.9250 N.am   89  GLU89      -0.1966
     66  CA        18.0270   12.2590   16.3410 C.3    89  GLU89       0.1733
     67  C         18.3580   11.1230   17.3100 C.2    89  GLU89       0.2616
     68  O         19.2310   10.3120   17.0250 O.2    89  GLU89      -0.2715
     69  CB        17.3060   11.7000   15.1120 C.3    89  GLU89       0.0429
     70  CG        15.9840   10.9970   15.3840 C.3    89  GLU89       0.1163
     71  CD        15.2980   10.5120   14.1050 C.2    89  GLU89       0.3649
     72  OE1       15.9330   10.4830   13.0290 O.co2  89  GLU89      -0.2457
     73  OE2       14.1170   10.1620   14.1840 O.co2  89  GLU89      -0.2457
     74  N         17.6750   11.0790   18.4470 N.am   90  LEU90      -0.1963
     75  CA        17.8700   10.0150   19.4380 C.3    90  LEU90       0.1728
     76  C         17.0960    8.7780   19.0130 C.2    90  LEU90       0.2616
     77  O         15.8910    8.8670   18.7560 O.2    90  LEU90      -0.2715
     78  CB        17.3660   10.4690   20.8100 C.3    90  LEU90       0.0311
     79  CG        17.5200    9.4960   21.9840 C.3    90  LEU90       0.0022
     80  CD1       19.0020    9.1640   22.2330 C.3    90  LEU90       0.0001
     81  CD2       16.8570   10.0440   23.2410 C.3    90  LEU90       0.0001
     82  N         17.7760    7.6350   18.9340 N.am   91  VAL91      -0.1963
     83  CA        17.1020    6.3580   18.6720 C.3    91  VAL91       0.1727
     84  C         17.1500    5.5470   19.9730 C.2    91  VAL91       0.2616
     85  O         18.2110    5.3610   20.5540 O.2    91  VAL91      -0.2715
     86  CB        17.7180    5.6140   17.4420 C.3    91  VAL91       0.0290
     87  CG1       17.7520    6.5670   16.2240 C.3    91  VAL91       0.0023
     88  CG2       19.1080    5.0980   17.7460 C.3    91  VAL91       0.0023
     89  N         15.9920    5.1060   20.4540 N.am   92  SER92      -0.1950
     90  CA        15.8910    4.4800   21.7830 C.3    92  SER92       0.1924
     91  C         15.5610    2.9850   21.7880 C.2    92  SER92       0.2314
     92  O         15.5440    2.3690   22.8470 O.2    92  SER92      -0.2863
     93  CB        14.8410    5.2250   22.6160 C.3    92  SER92       0.2116
     94  OG        15.1880    6.5930   22.7550 O.3    92  SER92      -0.2180
     95  N         17.2360    0.4080   20.4260 N.3    94  GLY94      -0.1225
     96  CA        18.3810   -0.4940   20.3430 C.3    94  GLY94       0.1811
     97  C         18.6080   -1.0330   18.9430 C.2    94  GLY94       0.2280
     98  O         18.0460   -0.5130   17.9670 O.2    94  GLY94      -0.2866
     99  N         24.7400   -1.0470   12.8950 N.3   139  ASN139     -0.1240
    100  CA        24.3410    0.2740   12.4150 C.3   139  ASN139      0.1653
    101  C         22.8650    0.3790   12.0040 C.2   139  ASN139      0.2266
    102  O         22.4440    1.3860   11.4270 O.2   139  ASN139     -0.2867
    103  CB        25.2770    0.7190   11.2850 C.3   139  ASN139      0.1155
    104  CG        26.6750    0.9910   11.7810 C.2   139  ASN139      0.2627
    105  OD1       26.8510    1.3300   12.9410 O.2   139  ASN139     -0.2716
    106  ND2       27.6790    0.8330   10.9200 N.am  139  ASN139     -0.0877
    107  N         19.4100    0.4560   13.7550 N.3   141  MET141     -0.1245
    108  CA        18.7670    0.6320   15.0500 C.3   141  MET141      0.1570
    109  C         17.2570    0.7290   14.8870 C.2   141  MET141      0.2261
    110  O         16.7360    0.7560   13.7640 O.2   141  MET141     -0.2867
    111  CB        19.2840    1.9070   15.7080 C.3   141  MET141      0.0387
    112  CG        20.7820    1.9730   15.8840 C.3   141  MET141      0.0595
    113  SD        21.3840    0.9150   17.1870 S.3   141  MET141     -0.1393
    114  CE        20.7530    1.7450   18.6510 C.3   141  MET141      0.0692
    115  N         22.3500    4.3680   11.2750 N.3   155  ILE155     -0.1231
    116  CA        23.3120    5.2550   11.9110 C.3   155  ILE155      0.1692
    117  C         24.7070    5.0560   11.3120 C.2   155  ILE155      0.2592
    118  O         24.8940    4.2380   10.4180 O.2   155  ILE155     -0.2718
    119  CB        23.3690    5.0240   13.4530 C.3   155  ILE155      0.0266
    120  CG1       23.9210    3.6390   13.7690 C.3   155  ILE155      0.0019
    121  CG2       21.9900    5.2460   14.0640 C.3   155  ILE155      0.0020
    122  CD1       24.2910    3.4060   15.2820 C.3   155  ILE155      0.0001
    123  N         25.6550    5.8360   11.8200 N.am  156  ASP156     -0.1974
    124  CA        27.0950    5.7460   11.5100 C.3   156  ASP156      0.1709
    125  C         27.4850    5.9770   10.0530 C.2   156  ASP156      0.2293
    126  O         27.7420    5.0330    9.3070 O.2   156  ASP156     -0.2864
    127  CB        27.7170    4.4420   12.0220 C.3   156  ASP156      0.1436
    128  CG        29.2410    4.5160   12.0970 C.2   156  ASP156      0.3671
    129  OD1       29.8380    5.5190   11.6350 O.co2 156  ASP156     -0.2456
    130  OD2       29.8520    3.5810   12.6440 O.co2 156  ASP156     -0.2456
@<TRIPOS>BOND
     1   126   125    2
     2    52    51    2
     3   125   124    1
     4   118   117    2
     5    49    50    1
     6   106   104   am
     7    51    50    1
     8   115   116    1
     9   103   104    1
    10   103   100    1
    11   117   123   am
    12   117   116    1
    13   102   101    2
    14   124   123    1
    15   124   127    1
    16   129   128   ar
    17    50    53    1
    18   104   105    2
    19    54    53    1
    20    54    56    1
    21   116   119    1
    22   101   100    1
    23   127   128    1
    24   128   130   ar
    25   100    99    1
    26    53    55    1
    27    72    71   ar
    28   119   120    1
    29   119   121    1
    30   107   108    1
    31   110   109    2
    32   120   122    1
    33    64    62    1
    34    48    47    1
    35    71    73   ar
    36    71    70    1
    37   109   108    1
    38   108   111    1
    39    69    70    1
    40    69    66    1
    41    47    46    1
    42    62    63    1
    43    62    61    1
    44    46    45    1
    45   111   112    1
    46   112   113    1
    47    61    58    1
    48    65    66    1
    49    65    59   am
    50    58    59    1
    51    58    57    1
    52    87    86    1
    53    66    67    1
    54    59    60    2
    55    68    67    2
    56    45    44    1
    57   113   114    1
    58    67    74   am
    59    86    88    1
    60    86    83    1
    61    44    41    1
    62    27    24    1
    63    98    97    2
    64    43    42    2
    65    74    75    1
    66    83    82    1
    67    83    84    1
    68    20    21    1
    69    20    19    1
    70    77    76    2
    71    23    24    1
    72    82    76   am
    73    97    96    1
    74    76    75    1
    75    24    25    1
    76    21    22    2
    77    41    42    1
    78    41    40    1
    79    38    37    2
    80    75    78    1
    81    34    32    1
    82    19    15   am
    83    84    89   am
    84    84    85    2
    85    16    15    2
    86    39    36    1
    87    25    26    2
    88    15    14    1
    89    96    95    1
    90    37    36    1
    91    89    90    1
    92    35    36    1
    93    78    79    1
    94    33    32    1
    95    32    29    1
    96    14    13    1
    97    14    17    1
    98    90    91    1
    99    90    93    1
   100    91    92    2
   101    13    11   am
   102    29    28    1
   103    29    30    1
   104    79    80    1
   105    79    81    1
   106    11    10    1
   107    11    12    2
   108    10     9    1
   109    93    94    1
   110    17    18    1
   111    30    31    2
   112     9     3   am
   113     7     6    1
   114     4     3    2
   115     5     6    1
   116     5     2    1
   117     3     2    1
   118     6     8    1
   119     2     1    1
