@<TRIPOS>MOLECULE
tmp/2j94A00.pdb
 170 170 0 0 0
SMALL
GASTEIGER

@<TRIPOS>ATOM
      1  N         13.9800   11.3160   13.9460 N.3    42  HIS42      -0.1241
      2  CA        12.5090   11.3280   13.9430 C.3    42  HIS42       0.1621
      3  C         11.9460   12.6970   14.3420 C.2    42  HIS42       0.2264
      4  O         10.7910   13.0160   14.0410 O.2    42  HIS42      -0.2867
      5  CB        11.9180   10.2200   14.8280 C.3    42  HIS42       0.0745
      6  CG        11.8090   10.5750   16.2810 C.ar   42  HIS42       0.0817
      7  ND1       12.7760   10.2480   17.2080 N.ar   42  HIS42      -0.2268
      8  CD2       10.8160   11.1770   16.9770 C.ar   42  HIS42       0.1154
      9  CE1       12.3920   10.6540   18.4040 C.ar   42  HIS42       0.1986
     10  NE2       11.2140   11.2380   18.2880 N.ar   42  HIS42      -0.2212
     11  N         11.3950    5.0470   10.0940 N.3    82  LYS82      -0.1231
     12  CA        10.2740    5.3050   11.0010 C.3    82  LYS82       0.1693
     13  C          9.6900    4.0070   11.5570 C.2    82  LYS82       0.2592
     14  O          8.9570    4.0370   12.5450 O.2    82  LYS82      -0.2718
     15  CB         9.1370    6.0680   10.2900 C.3    82  LYS82       0.0285
     16  CG         9.5470    7.3730    9.6270 C.3    82  LYS82       0.0035
     17  CD         8.3390    8.0670    8.9800 C.3    82  LYS82       0.0206
     18  CE         8.7380    9.3740    8.2850 C.3    82  LYS82       0.1093
     19  NZ         7.5790    9.9930    7.5710 N.3    82  LYS82      -0.1314
     20  N          9.9950    2.8860   10.9030 N.am   83  GLU83      -0.1966
     21  CA         9.4120    1.6020   11.2600 C.3    83  GLU83       0.1733
     22  C          9.8790    1.0930   12.5960 C.2    83  GLU83       0.2617
     23  O          9.0780    0.6120   13.3950 O.2    83  GLU83      -0.2715
     24  CB         9.6750    0.5500   10.1720 C.3    83  GLU83       0.0429
     25  CG         8.7880    0.6860    8.9170 C.3    83  GLU83       0.1163
     26  CD         9.1510    1.8700    8.0200 C.2    83  GLU83       0.3649
     27  OE1       10.3630    2.1750    7.8740 O.co2  83  GLU83      -0.2457
     28  OE2        8.2160    2.4820    7.4460 O.co2  83  GLU83      -0.2457
     29  N         11.1750    1.2160   12.8410 N.am   84  THR84      -0.1937
     30  CA        11.7790    0.7460   14.0780 C.3    84  THR84       0.2028
     31  C         12.5420    1.8510   14.8490 C.2    84  THR84       0.2642
     32  O         12.9920    1.6170   15.9820 O.2    84  THR84      -0.2714
     33  CB        12.7870   -0.3630   13.7670 C.3    84  THR84       0.1808
     34  OG1       13.7980    0.1710   12.9130 O.3    84  THR84      -0.2208
     35  CG2       12.1080   -1.5800   13.0750 C.3    84  THR84       0.0379
     36  N         12.6600    3.0370   14.2400 N.am   85  TYR85      -0.1973
     37  CA        13.5120    4.1410   14.7550 C.3    85  TYR85       0.1639
     38  C         14.9840    3.7300   14.8400 C.2    85  TYR85       0.2290
     39  O         15.7110    4.2310   15.6900 O.2    85  TYR85      -0.2864
     40  CB        13.0620    4.6760   16.1160 C.3    85  TYR85       0.0560
     41  CG        11.9410    5.6920   16.1010 C.ar   85  TYR85      -0.0198
     42  CD1       10.9640    5.6780   15.1030 C.ar   85  TYR85      -0.0009
     43  CD2       11.8040    6.6190   17.1490 C.ar   85  TYR85      -0.0009
     44  CE1        9.9000    6.5850   15.1190 C.ar   85  TYR85       0.0417
     45  CE2       10.7520    7.5210   17.1680 C.ar   85  TYR85       0.0417
     46  CZ         9.8040    7.4980   16.1420 C.ar   85  TYR85       0.1957
     47  OH         8.7640    8.3940   16.1360 O.3    85  TYR85      -0.2866
     48  N          8.9520   -3.9670   20.9100 N.3   162  PHE162     -0.1241
     49  CA         9.5370   -3.5190   19.6520 C.3   162  PHE162      0.1605
     50  C         11.0040   -3.8950   19.6360 C.2   162  PHE162      0.2264
     51  O         11.6240   -4.0360   20.6920 O.2   162  PHE162     -0.2867
     52  CB         9.3370   -2.0230   19.4660 C.3   162  PHE162      0.0534
     53  CG         7.8860   -1.5870   19.5070 C.ar  162  PHE162     -0.0203
     54  CD1        7.2930   -1.2040   20.7150 C.ar  162  PHE162     -0.0042
     55  CD2        7.1220   -1.5520   18.3480 C.ar  162  PHE162     -0.0042
     56  CE1        5.9710   -0.8030   20.7560 C.ar  162  PHE162     -0.0003
     57  CE2        5.7900   -1.1320   18.3780 C.ar  162  PHE162     -0.0003
     58  CZ         5.2140   -0.7590   19.5770 C.ar  162  PHE162     -0.0000
     59  N         11.2920    8.6560   34.2650 N.3   179  ASP179     -0.1225
     60  CA        11.6130    8.3120   32.8900 C.3   179  ASP179      0.1805
     61  C         11.6090    9.5860   32.0250 C.2   179  ASP179      0.2598
     62  O         11.0930   10.6350   32.4170 O.2   179  ASP179     -0.2718
     63  CB        10.5280    7.3520   32.3810 C.3   179  ASP179      0.1424
     64  CG        10.9080    6.6130   31.0860 C.2   179  ASP179      0.3668
     65  OD1       12.1060    6.6280   30.6770 O.co2 179  ASP179     -0.2456
     66  OD2        9.9870    6.0040   30.4720 O.co2 179  ASP179     -0.2456
     67  N         12.2470    9.5040   30.8630 N.am  180  ALA180     -0.1966
     68  CA        12.1190   10.5500   29.8690 C.3   180  ALA180      0.1728
     69  C         10.6700   10.3650   29.3700 C.2   180  ALA180      0.2616
     70  O         10.0000    9.3870   29.7300 O.2   180  ALA180     -0.2715
     71  CB        13.1040   10.3410   28.7570 C.3   180  ALA180      0.0334
     72  N         10.1820   11.2960   28.5590 N.am  181  CYS181     -0.1954
     73  CA         8.8120   11.2130   28.0800 C.3   181  CYS181      0.1843
     74  C          8.6690   12.0060   26.7730 C.2   181  CYS181      0.2625
     75  O          9.6650   12.5020   26.2410 O.2   181  CYS181     -0.2714
     76  CB         7.8600   11.7230   29.1780 C.3   181  CYS181      0.0997
     77  SG         6.0990   11.4410   28.8410 S.3   181  CYS181     -0.0797
     78  N          7.4480   12.1140   26.2560 N.am  182  GLN182     -0.1963
     79  CA         7.1940   12.8290   24.9990 C.3   182  GLN182      0.1733
     80  C          7.6710   14.2840   25.0800 C.2   182  GLN182      0.2616
     81  O          7.4050   14.9510   26.0790 O.2   182  GLN182     -0.2715
     82  CB         5.6860   12.8010   24.7230 C.3   182  GLN182      0.0408
     83  CG         5.2330   13.4600   23.4190 C.3   182  GLN182      0.0908
     84  CD         3.7370   13.3090   23.2160 C.2   182  GLN182      0.2608
     85  OE1        3.0100   12.8400   24.1110 O.2   182  GLN182     -0.2717
     86  NE2        3.2640   13.6860   22.0320 N.am  182  GLN182     -0.0878
     87  N          8.3330   14.7790   24.0270 N.am  183  GLY183     -0.1955
     88  CA         8.8690   16.1370   24.0260 C.3   183  GLY183      0.1869
     89  C         10.3410   16.1940   24.4340 C.2   183  GLY183      0.2309
     90  O         11.0490   17.1660   24.1260 O.2   183  GLY183     -0.2863
     91  N         12.3740   13.9140   23.3820 N.3   185  SER185     -0.1217
     92  CA        12.9990   13.2940   22.2060 C.3   185  SER185      0.1889
     93  C         14.0440   14.1860   21.5840 C.2   185  SER185      0.2288
     94  O         13.8320   15.3830   21.4710 O.2   185  SER185     -0.2866
     95  CB        11.9420   12.9620   21.1610 C.3   185  SER185      0.2089
     96  OG        10.8240   12.3480   21.8000 O.3   185  SER185     -0.2183
     97  N         17.7000   10.8740   23.3530 N.3   203  VAL203     -0.1231
     98  CA        16.3700   10.3480   23.6960 C.3   203  VAL203      0.1692
     99  C         15.6490    9.9320   22.3810 C.2   203  VAL203      0.2593
    100  O         15.4760   10.7510   21.4710 O.2   203  VAL203     -0.2718
    101  CB        15.5370   11.3940   24.4710 C.3   203  VAL203      0.0266
    102  CG1       14.1590   10.8060   24.8520 C.3   203  VAL203      0.0020
    103  CG2       16.2790   11.8520   25.7390 C.3   203  VAL203      0.0020
    104  N         15.2270    8.6690   22.2880 N.am  204  SER204     -0.1938
    105  CA        14.6950    8.1660   21.0200 C.3   204  SER204      0.2055
    106  C         13.2390    7.7510   21.1110 C.2   204  SER204      0.2643
    107  O         12.3740    8.3720   20.4690 O.2   204  SER204     -0.2714
    108  CB        15.5650    7.0150   20.4860 C.3   204  SER204      0.2130
    109  OG        15.1430    6.6200   19.1980 O.3   204  SER204     -0.2179
    110  N         12.9560    6.7480   21.9360 N.am  205  TRP205     -0.1959
    111  CA        11.5710    6.2970   22.0620 C.3   205  TRP205      0.1771
    112  C         11.2510    5.5230   23.3610 C.2   205  TRP205      0.2620
    113  O         12.1290    5.2300   24.1720 O.2   205  TRP205     -0.2715
    114  CB        11.1830    5.4840   20.8110 C.3   205  TRP205      0.0590
    115  CG        11.9720    4.2110   20.5610 C.ar  205  TRP205      0.0006
    116  CD1       13.1340    4.0850   19.8390 C.ar  205  TRP205      0.0946
    117  CD2       11.6060    2.8720   20.9570 C.ar  205  TRP205      0.0152
    118  NE1       13.5280    2.7740   19.7990 N.ar  205  TRP205     -0.2442
    119  CE2       12.6000    2.0050   20.4600 C.ar  205  TRP205      0.0810
    120  CE3       10.5280    2.3280   21.6830 C.ar  205  TRP205      0.0012
    121  CZ2       12.5630    0.6160   20.6780 C.ar  205  TRP205      0.0191
    122  CZ3       10.4870    0.9660   21.8970 C.ar  205  TRP205      0.0001
    123  CH2       11.4990    0.1200   21.4100 C.ar  205  TRP205      0.0015
    124  N          9.9730    5.2130   23.5490 N.am  206  GLY206     -0.1940
    125  CA         9.5240    4.4310   24.6980 C.3   206  GLY206      0.2014
    126  C          8.0690    4.0620   24.5230 C.2   206  GLY206      0.2639
    127  O          7.3510    4.7440   23.7970 O.2   206  GLY206     -0.2714
    128  N          7.6370    2.9720   25.1600 N.am  207  GLU207     -0.1963
    129  CA         6.1900    2.6050   25.1660 C.3   207  GLU207      0.1733
    130  C          5.5510    3.3800   26.3300 C.2   207  GLU207      0.2617
    131  O          5.6380    2.9860   27.4890 O.2   207  GLU207     -0.2715
    132  CB         6.0300    1.0880   25.2890 C.3   207  GLU207      0.0429
    133  CG         6.7800    0.3200   24.1800 C.3   207  GLU207      0.1163
    134  CD         6.7110   -1.1970   24.3550 C.2   207  GLU207      0.3649
    135  OE1        5.5780   -1.7400   24.4050 O.co2 207  GLU207     -0.2457
    136  OE2        7.7770   -1.8410   24.4460 O.co2 207  GLU207     -0.2457
    137  N          4.9830    4.5440   26.0290 N.am  208  GLY208     -0.1940
    138  CA         4.5280    5.4420   27.1060 C.3   208  GLY208      0.2014
    139  C          5.6750    6.0580   27.9230 C.2   208  GLY208      0.2639
    140  O          6.8280    6.1330   27.4630 O.2   208  GLY208     -0.2714
    141  N          5.3720    6.4970   29.1430 N.am  209  CYS209     -0.1967
    142  CA         6.3740    7.1320   29.9930 C.3   209  CYS209      0.1712
    143  C          6.3360    6.5340   31.3780 C.2   209  CYS209      0.2296
    144  O          5.3160    6.5910   32.0370 O.2   209  CYS209     -0.2864
    145  CB         6.1600    8.6570   30.0830 C.3   209  CYS209      0.0983
    146  SG         6.0060    9.4430   28.4810 S.3   209  CYS209     -0.0798
    147  N         13.3640    3.4370   28.9750 N.3   216  GLY216     -0.1210
    148  CA        13.5390    4.4410   27.9280 C.3   216  GLY216      0.1956
    149  C         14.4860    3.8980   26.8510 C.2   216  GLY216      0.2612
    150  O         15.4210    3.1790   27.1560 O.2   216  GLY216     -0.2717
    151  N         14.2290    4.2050   25.5870 N.am  217  ILE217     -0.1965
    152  CA        15.1220    3.7510   24.5440 C.3   217  ILE217      0.1727
    153  C         15.8860    4.9460   23.9460 C.2   217  ILE217      0.2616
    154  O         15.2940    5.9250   23.4950 O.2   217  ILE217     -0.2715
    155  CB        14.4040    2.9270   23.4590 C.3   217  ILE217      0.0290
    156  CG1       13.3410    1.9890   24.0860 C.3   217  ILE217      0.0022
    157  CG2       15.4480    2.1420   22.6120 C.3   217  ILE217      0.0023
    158  CD1       13.8850    0.9450   25.0710 C.3   217  ILE217      0.0001
    159  N         17.2130    4.8140   23.9190 N.am  218  TYR218     -0.1974
    160  CA        18.1360    5.8890   23.5260 C.3   218  TYR218      0.1639
    161  C         18.9900    5.4550   22.3510 C.2   218  TYR218      0.2290
    162  O         19.3530    4.2860   22.2570 O.2   218  TYR218     -0.2864
    163  CB        19.0700    6.1770   24.6980 C.3   218  TYR218      0.0560
    164  CG        18.3260    6.7310   25.9050 C.ar  218  TYR218     -0.0198
    165  CD1       17.6080    5.8850   26.7660 C.ar  218  TYR218     -0.0009
    166  CD2       18.3020    8.1070   26.1500 C.ar  218  TYR218     -0.0009
    167  CE1       16.9040    6.3970   27.8470 C.ar  218  TYR218      0.0417
    168  CE2       17.5920    8.6260   27.2210 C.ar  218  TYR218      0.0417
    169  CZ        16.8970    7.7630   28.0620 C.ar  218  TYR218      0.1957
    170  OH        16.2120    8.2830   29.1140 O.3   218  TYR218     -0.2866
@<TRIPOS>BOND
     1    28    26   ar
     2    19    18    1
     3    27    26   ar
     4    26    25    1
     5    18    17    1
     6    25    24    1
     7    17    16    1
     8    16    15    1
     9    11    12    1
    10    24    21    1
    11    15    12    1
    12    20    21    1
    13    20    13   am
    14    12    13    1
    15    21    22    1
    16    13    14    2
    17    22    29   am
    18    22    23    2
    19    29    30    1
    20    34    33    1
    21    35    33    1
    22    33    30    1
    23     2     1    1
    24     2     3    1
    25     2     5    1
    26     4     3    2
    27    30    31    1
    28    36    37    1
    29    36    31   am
    30    37    38    1
    31    37    40    1
    32     5     6    1
    33    38    39    2
    34    31    32    2
    35    42    44   ar
    36    42    41   ar
    37    44    46   ar
    38    41    40    1
    39    41    43   ar
    40    47    46    1
    41    46    45   ar
    42     6     8   ar
    43     6     7   ar
    44     8    10   ar
    45    43    45   ar
    46     7     9   ar
    47    10     9   ar
    48    55    57   ar
    49    55    53   ar
    50    57    58   ar
    51   109   108    1
    52    52    53    1
    53    52    49    1
    54    53    54   ar
    55    58    56   ar
    56    50    49    1
    57    50    51    2
    58    49    48    1
    59   118   116   ar
    60   118   119   ar
    61   116   115   ar
    62   119   121   ar
    63   119   117   ar
    64   107   106    2
    65   108   105    1
    66   115   114    1
    67   115   117   ar
    68   121   123   ar
    69    54    56   ar
    70   114   111    1
    71   117   120   ar
    72   105   106    1
    73   105   104    1
    74   106   110   am
    75    95    96    1
    76    95    92    1
    77   123   122   ar
    78   100    99    2
    79    94    93    2
    80    93    92    1
    81   120   122   ar
    82   110   111    1
    83    86    84   am
    84   111   112    1
    85    92    91    1
    86   162   161    2
    87   104    99   am
    88   161   160    1
    89    99    98    1
    90   157   155    1
    91    84    83    1
    92    84    85    2
    93    97    98    1
    94   112   124   am
    95   112   113    2
    96    83    82    1
    97   155   156    1
    98   155   152    1
    99   154   153    2
   100   160   159    1
   101   160   163    1
   102   124   125    1
   103    98   101    1
   104   127   126    2
   105   159   153   am
   106   153   152    1
   107    88    87    1
   108    88    89    1
   109    87    80   am
   110   156   158    1
   111    90    89    2
   112   133   134    1
   113   133   132    1
   114   134   135   ar
   115   134   136   ar
   116   101   102    1
   117   101   103    1
   118   126   125    1
   119   126   128   am
   120   152   151    1
   121   163   164    1
   122    82    79    1
   123    79    80    1
   124    79    78    1
   125    80    81    2
   126   128   129    1
   127   129   132    1
   128   129   130    1
   129   151   149   am
   130   164   166   ar
   131   164   165   ar
   132   137   130   am
   133   137   138    1
   134   166   168   ar
   135    75    74    2
   136    78    74   am
   137   130   131    2
   138   165   167   ar
   139    74    73    1
   140   149   150    2
   141   149   148    1
   142   138   139    1
   143   168   169   ar
   144   140   139    2
   145   167   169   ar
   146   139   141   am
   147   148   147    1
   148   169   170    1
   149    73    72    1
   150    73    76    1
   151   146    77    1
   152   146   145    1
   153    72    69   am
   154    71    68    1
   155    77    76    1
   156   141   142    1
   157    69    70    2
   158    69    68    1
   159    68    67    1
   160   142   145    1
   161   142   143    1
   162    66    64   ar
   163    65    64   ar
   164    67    61   am
   165    64    63    1
   166   143   144    2
   167    61    62    2
   168    61    60    1
   169    63    60    1
   170    60    59    1
