@<TRIPOS>MOLECULE
tmp/2j95A00.pdb
 175 174 0 0 0
SMALL
GASTEIGER

@<TRIPOS>ATOM
      1  N         14.3960   10.9980   14.0820 N.3    42  HIS42      -0.1241
      2  CA        12.9390   10.9670   14.0720 C.3    42  HIS42       0.1621
      3  C         12.3040   12.3290   14.3580 C.2    42  HIS42       0.2264
      4  O         11.1530   12.5790   13.9770 O.2    42  HIS42      -0.2867
      5  CB        12.3810    9.8700   14.9990 C.3    42  HIS42       0.0745
      6  CG        12.0700   10.3090   16.4040 C.ar   42  HIS42       0.0817
      7  ND1       12.7990    9.8860   17.4960 N.ar   42  HIS42      -0.2268
      8  CD2       11.0490   11.0450   16.9050 C.ar   42  HIS42       0.1154
      9  CE1       12.2560   10.3680   18.6050 C.ar   42  HIS42       0.1986
     10  NE2       11.2070   11.0970   18.2720 N.ar   42  HIS42      -0.2212
     11  N         11.9250    4.4640   10.2380 N.3    82  LYS82      -0.1231
     12  CA        10.7450    4.6640   11.1060 C.3    82  LYS82       0.1693
     13  C         10.0940    3.3870   11.6190 C.2    82  LYS82       0.2592
     14  O          9.3080    3.4330   12.5610 O.2    82  LYS82      -0.2718
     15  CB         9.6530    5.5040   10.4070 C.3    82  LYS82       0.0285
     16  CG        10.0480    6.9430   10.0670 C.3    82  LYS82       0.0035
     17  CD         8.8470    7.8080    9.6550 C.3    82  LYS82       0.0206
     18  CE         9.3080    9.2370    9.3130 C.3    82  LYS82       0.1093
     19  NZ         8.1880   10.2130    9.0840 N.3    82  LYS82      -0.1314
     20  N         10.4000    2.2590   10.9900 N.am   83  GLU83      -0.1966
     21  CA         9.8010    0.9830   11.3800 C.3    83  GLU83       0.1733
     22  C         10.2300    0.5680   12.7910 C.2    83  GLU83       0.2617
     23  O          9.4220    0.0710   13.5870 O.2    83  GLU83      -0.2715
     24  CB        10.1780   -0.1300   10.3690 C.3    83  GLU83       0.0429
     25  CG         9.9470    0.2090    8.8850 C.3    83  GLU83       0.1163
     26  CD         8.5130    0.6580    8.5790 C.2    83  GLU83       0.3649
     27  OE1        7.5620    0.1190    9.2050 O.co2  83  GLU83      -0.2457
     28  OE2        8.3430    1.5470    7.7030 O.co2  83  GLU83      -0.2457
     29  N         11.5040    0.7940   13.0890 N.am   84  THR84      -0.1937
     30  CA        12.1040    0.3680   14.3540 C.3    84  THR84       0.2028
     31  C         12.7810    1.5090   15.1470 C.2    84  THR84       0.2642
     32  O         13.0530    1.3510   16.3480 O.2    84  THR84      -0.2714
     33  CB        13.1760   -0.7000   14.0710 C.3    84  THR84       0.1808
     34  OG1       14.1610   -0.1480   13.1940 O.3    84  THR84      -0.2208
     35  CG2       12.5720   -1.9550   13.3790 C.3    84  THR84       0.0379
     36  N         13.0160    2.6450   14.4700 N.am   85  TYR85      -0.1973
     37  CA        13.7850    3.7920   15.0040 C.3    85  TYR85       0.1639
     38  C         15.2820    3.4440   15.1000 C.2    85  TYR85       0.2290
     39  O         16.0090    4.0290   15.9000 O.2    85  TYR85      -0.2864
     40  CB        13.2240    4.3060   16.3490 C.3    85  TYR85       0.0560
     41  CG        12.0870    5.3130   16.2850 C.ar   85  TYR85      -0.0198
     42  CD1       11.8820    6.2120   17.3340 C.ar   85  TYR85      -0.0009
     43  CD2       11.2350    5.3880   15.1820 C.ar   85  TYR85      -0.0009
     44  CE1       10.8350    7.1360   17.3120 C.ar   85  TYR85       0.0417
     45  CE2       10.1650    6.3260   15.1400 C.ar   85  TYR85       0.0417
     46  CZ         9.9760    7.1880   16.2030 C.ar   85  TYR85       0.1957
     47  OH         8.9550    8.1090   16.1750 O.3    85  TYR85      -0.2866
     48  N          2.8430   10.8780   31.3800 N.3   135  GLU135     -0.1245
     49  CA         2.4210   10.3490   30.0770 C.3   135  GLU135      0.1567
     50  C          1.3040   11.1250   29.3590 C.2   135  GLU135      0.2260
     51  O          1.3870   11.3490   28.1530 O.2   135  GLU135     -0.2867
     52  CB         2.0930    8.8510   30.1880 C.3   135  GLU135      0.0388
     53  CG         1.9210    8.1650   28.8500 C.3   135  GLU135      0.1160
     54  CD         1.7900    6.6490   28.9610 C.2   135  GLU135      0.3649
     55  OE1        2.1090    6.0840   30.0430 O.co2 135  GLU135     -0.2457
     56  OE2        1.3850    6.0220   27.9480 O.co2 135  GLU135     -0.2457
     57  N          9.0790   -4.3230   21.4140 N.3   162  PHE162     -0.1241
     58  CA         9.6990   -3.8890   20.1470 C.3   162  PHE162      0.1605
     59  C         11.1850   -4.1750   20.1780 C.2   162  PHE162      0.2264
     60  O         11.8270   -4.0640   21.2410 O.2   162  PHE162     -0.2867
     61  CB         9.5130   -2.3860   19.9390 C.3   162  PHE162      0.0534
     62  CG         8.0880   -1.9540   19.8560 C.ar  162  PHE162     -0.0203
     63  CD1        7.3390   -1.7420   21.0130 C.ar  162  PHE162     -0.0042
     64  CD2        7.4910   -1.7370   18.6170 C.ar  162  PHE162     -0.0042
     65  CE1        6.0080   -1.3300   20.9460 C.ar  162  PHE162     -0.0003
     66  CE2        6.1520   -1.3230   18.5370 C.ar  162  PHE162     -0.0003
     67  CZ         5.4120   -1.1140   19.7070 C.ar  162  PHE162     -0.0000
     68  N         11.0720    8.7720   34.5940 N.3   179  ASP179     -0.1225
     69  CA        11.4530    8.4610   33.2050 C.3   179  ASP179      0.1805
     70  C         11.5460    9.7510   32.3590 C.2   179  ASP179      0.2598
     71  O         11.1420   10.8260   32.8100 O.2   179  ASP179     -0.2718
     72  CB        10.3850    7.5250   32.6020 C.3   179  ASP179      0.1424
     73  CG        10.8710    6.7400   31.3840 C.2   179  ASP179      0.3668
     74  OD1       12.0850    6.7980   31.0470 O.co2 179  ASP179     -0.2456
     75  OD2       10.0220    6.0400   30.7650 O.co2 179  ASP179     -0.2456
     76  N         12.1200    9.6430   31.1560 N.am  180  ALA180     -0.1966
     77  CA        12.0420   10.7140   30.1610 C.3   180  ALA180      0.1728
     78  C         10.6130   10.5370   29.6060 C.2   180  ALA180      0.2616
     79  O          9.9100    9.6060   30.0220 O.2   180  ALA180     -0.2715
     80  CB        13.0710   10.5130   29.0550 C.3   180  ALA180      0.0334
     81  N         10.1900   11.3960   28.6770 N.am  181  CYS181     -0.1954
     82  CA         8.8400   11.3010   28.0920 C.3   181  CYS181      0.1843
     83  C          8.7540   12.0450   26.7420 C.2   181  CYS181      0.2625
     84  O          9.7620   12.5390   26.2220 O.2   181  CYS181     -0.2714
     85  CB         7.8070   11.8270   29.1080 C.3   181  CYS181      0.0997
     86  SG         6.0690   11.3010   28.8320 S.3   181  CYS181     -0.0797
     87  N          7.5630   12.1290   26.1510 N.am  182  GLN182     -0.1977
     88  CA         7.4160   12.8370   24.8620 C.3   182  GLN182      0.1601
     89  C          7.8820   14.2900   24.9960 C.2   182  GLN182      0.2287
     90  O          7.6460   14.9120   26.0180 O.2   182  GLN182     -0.2864
     91  CB         5.9620   12.7760   24.3770 C.3   182  GLN182      0.0394
     92  CG         5.7200   13.3400   22.9770 C.3   182  GLN182      0.0908
     93  CD         4.3010   13.0930   22.5210 C.2   182  GLN182      0.2608
     94  OE1        3.3780   13.0280   23.3470 O.2   182  GLN182     -0.2717
     95  NE2        4.1070   12.9400   21.1990 N.am  182  GLN182     -0.0878
     96  N         12.5110   13.9410   23.5480 N.3   185  SER185     -0.1217
     97  CA        13.1770   13.2060   22.4600 C.3   185  SER185      0.1889
     98  C         14.2360   14.0380   21.7170 C.2   185  SER185      0.2288
     99  O         14.0000   15.2100   21.4690 O.2   185  SER185     -0.2866
    100  CB        12.1400   12.6800   21.4670 C.3   185  SER185      0.2089
    101  OG        11.1270   11.9280   22.1290 O.3   185  SER185     -0.2183
    102  N         17.9360   10.7350   23.7070 N.3   203  VAL203     -0.1231
    103  CA        16.5530   10.3030   24.0350 C.3   203  VAL203      0.1692
    104  C         15.8140    9.8650   22.7410 C.2   203  VAL203      0.2593
    105  O         15.6600   10.6810   21.8160 O.2   203  VAL203     -0.2718
    106  CB        15.7810   11.4260   24.7460 C.3   203  VAL203      0.0266
    107  CG1       14.3070   10.9960   25.1000 C.3   203  VAL203      0.0020
    108  CG2       16.5510   11.8920   26.0380 C.3   203  VAL203      0.0020
    109  N         15.3670    8.5930   22.6760 N.am  204  SER204     -0.1938
    110  CA        14.7610    8.0490   21.4310 C.3   204  SER204      0.2055
    111  C         13.2740    7.5950   21.5280 C.2   204  SER204      0.2643
    112  O         12.4130    8.1600   20.8530 O.2   204  SER204     -0.2714
    113  CB        15.6410    6.9280   20.8560 C.3   204  SER204      0.2130
    114  OG        15.2570    6.5550   19.5420 O.3   204  SER204     -0.2179
    115  N         12.9740    6.5840   22.3390 N.am  205  TRP205     -0.1959
    116  CA        11.5810    6.1380   22.4780 C.3   205  TRP205      0.1771
    117  C         11.3300    5.3450   23.7570 C.2   205  TRP205      0.2620
    118  O         12.2480    5.0430   24.5240 O.2   205  TRP205     -0.2715
    119  CB        11.1640    5.3040   21.2560 C.3   205  TRP205      0.0590
    120  CG        12.0010    4.0580   20.9620 C.ar  205  TRP205      0.0006
    121  CD1       13.1380    3.9990   20.1900 C.ar  205  TRP205      0.0946
    122  CD2       11.7290    2.6910   21.3680 C.ar  205  TRP205      0.0152
    123  NE1       13.5870    2.7140   20.1070 N.ar  205  TRP205     -0.2442
    124  CE2       12.7530    1.8880   20.8240 C.ar  205  TRP205      0.0810
    125  CE3       10.7320    2.0830   22.1480 C.ar  205  TRP205      0.0012
    126  CZ2       12.8220    0.5020   21.0370 C.ar  205  TRP205      0.0191
    127  CZ3       10.8000    0.7010   22.3650 C.ar  205  TRP205      0.0001
    128  CH2       11.8320   -0.0720   21.7970 C.ar  205  TRP205      0.0015
    129  N         10.0580    5.0160   23.9750 N.am  206  GLY206     -0.1940
    130  CA         9.6520    4.1290   25.0630 C.3   206  GLY206      0.2014
    131  C          8.2070    3.7400   24.8220 C.2   206  GLY206      0.2639
    132  O          7.5290    4.3850   24.0220 O.2   206  GLY206     -0.2714
    133  N          7.7450    2.6820   25.4840 N.am  207  GLU207     -0.1963
    134  CA         6.3060    2.3020   25.4290 C.3   207  GLU207      0.1733
    135  C          5.5790    3.1550   26.4930 C.2   207  GLU207      0.2617
    136  O          5.4490    2.7510   27.6380 O.2   207  GLU207     -0.2715
    137  CB         6.1530    0.7910   25.6560 C.3   207  GLU207      0.0429
    138  CG         6.8520   -0.0470   24.5580 C.3   207  GLU207      0.1163
    139  CD         6.8030   -1.5590   24.8030 C.2   207  GLU207      0.3649
    140  OE1        5.6930   -2.1120   25.0080 O.co2 207  GLU207     -0.2457
    141  OE2        7.8710   -2.2100   24.7530 O.co2 207  GLU207     -0.2457
    142  N          5.1510    4.3660   26.1210 N.am  208  GLY208     -0.1940
    143  CA         4.6250    5.3190   27.1120 C.3   208  GLY208      0.2014
    144  C          5.7440    5.8900   27.9900 C.2   208  GLY208      0.2639
    145  O          6.9190    5.8280   27.6240 O.2   208  GLY208     -0.2714
    146  N          5.3960    6.4280   29.1600 N.am  209  CYS209     -0.1967
    147  CA         6.3870    7.0000   30.0690 C.3   209  CYS209      0.1712
    148  C          6.2760    6.4520   31.4930 C.2   209  CYS209      0.2296
    149  O          5.2310    6.6120   32.1570 O.2   209  CYS209     -0.2864
    150  CB         6.2540    8.5410   30.1090 C.3   209  CYS209      0.0983
    151  SG         6.1900    9.2930   28.4810 S.3   209  CYS209     -0.0798
    152  N         13.2950    3.3560   29.3770 N.3   216  GLY216     -0.1210
    153  CA        13.5260    4.3390   28.2970 C.3   216  GLY216      0.1956
    154  C         14.5880    3.8420   27.3230 C.2   216  GLY216      0.2612
    155  O         15.6130    3.2830   27.7330 O.2   216  GLY216     -0.2717
    156  N         14.3450    4.0170   26.0310 N.am  217  ILE217     -0.1965
    157  CA        15.2770    3.5730   25.0140 C.3   217  ILE217      0.1727
    158  C         16.0320    4.7650   24.3700 C.2   217  ILE217      0.2616
    159  O         15.4210    5.7210   23.8620 O.2   217  ILE217     -0.2715
    160  CB        14.5940    2.7000   23.9260 C.3   217  ILE217      0.0290
    161  CG1       13.5650    1.7110   24.5710 C.3   217  ILE217      0.0022
    162  CG2       15.6240    1.9540   23.1450 C.3   217  ILE217      0.0023
    163  CD1       14.1680    0.6990   25.5650 C.3   217  ILE217      0.0001
    164  N         17.3600    4.6370   24.3530 N.am  218  TYR218     -0.1974
    165  CA        18.2740    5.7040   23.9320 C.3   218  TYR218      0.1639
    166  C         19.1330    5.2810   22.7470 C.2   218  TYR218      0.2290
    167  O         19.5250    4.1210   22.6620 O.2   218  TYR218     -0.2864
    168  CB        19.1850    6.0430   25.1280 C.3   218  TYR218      0.0560
    169  CG        18.4490    6.6300   26.3320 C.ar  218  TYR218     -0.0198
    170  CD1       17.7700    5.7910   27.2500 C.ar  218  TYR218     -0.0009
    171  CD2       18.4250    8.0030   26.5530 C.ar  218  TYR218     -0.0009
    172  CE1       17.0820    6.3180   28.3600 C.ar  218  TYR218      0.0417
    173  CE2       17.7260    8.5560   27.6490 C.ar  218  TYR218      0.0417
    174  CZ        17.0530    7.7010   28.5480 C.ar  218  TYR218      0.1957
    175  OH        16.3660    8.2230   29.6220 O.3   218  TYR218     -0.2866
@<TRIPOS>BOND
     1    28    26   ar
     2    26    25    1
     3    26    27   ar
     4    25    24    1
     5    19    18    1
     6    18    17    1
     7    17    16    1
     8    16    15    1
     9    11    12    1
    10    24    21    1
    11    15    12    1
    12    20    21    1
    13    20    13   am
    14    12    13    1
    15    21    22    1
    16    13    14    2
    17    22    29   am
    18    22    23    2
    19    29    30    1
    20    34    33    1
    21    35    33    1
    22     4     3    2
    23    33    30    1
    24     2     1    1
    25     2     3    1
    26     2     5    1
    27    30    31    1
    28    36    37    1
    29    36    31   am
    30     5     6    1
    31    37    38    1
    32    37    40    1
    33    38    39    2
    34    45    43   ar
    35    45    46   ar
    36    31    32    2
    37    43    41   ar
    38    47    46    1
    39    46    44   ar
    40    41    40    1
    41    41    42   ar
    42     6     8   ar
    43     6     7   ar
    44     8    10   ar
    45    44    42   ar
    46     7     9   ar
    47    10     9   ar
    48    66    64   ar
    49    66    67   ar
    50    64    62   ar
    51   114   113    1
    52    67    65   ar
    53    62    61    1
    54    62    63   ar
    55    61    58    1
    56   123   121   ar
    57   123   124   ar
    58    58    59    1
    59    58    57    1
    60    59    60    2
    61   121   120   ar
    62   124   126   ar
    63   124   122   ar
    64   112   111    2
    65   113   110    1
    66    65    63   ar
    67   120   119    1
    68   120   122   ar
    69   126   128   ar
    70    95    93   am
    71   119   116    1
    72   122   125   ar
    73   110   111    1
    74   110   109    1
    75   100   101    1
    76   100    97    1
    77    99    98    2
    78   111   115   am
    79    98    97    1
    80   128   127   ar
    81   105   104    2
    82   125   127   ar
    83   115   116    1
    84    97    96    1
    85   116   117    1
    86    93    92    1
    87    93    94    2
    88   167   166    2
    89   109   104   am
    90   104   103    1
    91   166   165    1
    92    92    91    1
    93   162   160    1
    94   102   103    1
    95   117   129   am
    96   117   118    2
    97   159   158    2
    98   160   161    1
    99   160   157    1
   100   165   164    1
   101   165   168    1
   102   129   130    1
   103   132   131    2
   104   103   106    1
   105   164   158   am
   106   158   157    1
   107    91    88    1
   108   138   139    1
   109   138   137    1
   110   161   163    1
   111   106   107    1
   112   106   108    1
   113   141   139   ar
   114   139   140   ar
   115   131   130    1
   116   131   133   am
   117    88    89    1
   118    88    87    1
   119    89    90    2
   120   157   156    1
   121   168   169    1
   122   134   133    1
   123   134   137    1
   124   134   135    1
   125   156   154   am
   126   142   135   am
   127   142   143    1
   128    87    83   am
   129    84    83    2
   130   169   171   ar
   131   169   170   ar
   132   135   136    2
   133   171   173   ar
   134    83    82    1
   135   143   144    1
   136   170   172   ar
   137   154   155    2
   138   154   153    1
   139   145   144    2
   140   173   174   ar
   141    56    54   ar
   142   144   146   am
   143    82    81    1
   144    82    85    1
   145    51    50    2
   146   153   152    1
   147   172   174   ar
   148   151    86    1
   149   151   150    1
   150   174   175    1
   151    81    78   am
   152    86    85    1
   153    53    54    1
   154    53    52    1
   155    54    55   ar
   156    80    77    1
   157   146   147    1
   158    50    49    1
   159    78    79    2
   160    78    77    1
   161   147   150    1
   162   147   148    1
   163    49    52    1
   164    49    48    1
   165    77    76    1
   166    75    73   ar
   167    74    73   ar
   168    76    70   am
   169    73    72    1
   170   148   149    2
   171    70    71    2
   172    70    69    1
   173    72    69    1
   174    69    68    1
