@<TRIPOS>MOLECULE
tmp/2j97A00.pdb
 101 93 0 0 0
SMALL
GASTEIGER

@<TRIPOS>ATOM
      1  N        100.5740   20.5880  108.6790 N.3     4  VAL4       -0.1245
      2  CA       101.5830   21.6010  108.4250 C.3     4  VAL4        0.1561
      3  C        101.3890   22.7730  109.4100 C.2     4  VAL4        0.2260
      4  O        100.2620   23.1590  109.7020 O.2     4  VAL4       -0.2867
      5  CB       101.4890   22.0630  106.9440 C.3     4  VAL4        0.0252
      6  CG1      102.1670   23.3620  106.7450 C.3     4  VAL4        0.0019
      7  CG2      102.0910   20.9740  105.9840 C.3     4  VAL4        0.0019
      8  N        107.1730   25.9610  106.4410 N.3    20  ASN20      -0.1240
      9  CA       106.1740   25.0360  106.9310 C.3    20  ASN20       0.1653
     10  C        106.8510   23.8180  107.5480 C.2    20  ASN20       0.2266
     11  O        107.6170   23.1410  106.8720 O.2    20  ASN20      -0.2867
     12  CB       105.3110   24.5550  105.7630 C.3    20  ASN20       0.1155
     13  CG       104.1210   25.4880  105.4660 C.2    20  ASN20       0.2627
     14  OD1      103.6040   25.4990  104.3520 O.2    20  ASN20      -0.2716
     15  ND2      103.6630   26.2160  106.4760 N.am   20  ASN20      -0.0877
     16  N        106.2540   20.0310  108.6920 N.3    22  LEU22      -0.1245
     17  CA       105.3440   18.9180  108.4630 C.3    22  LEU22       0.1561
     18  C        105.4820   18.0500  109.6890 C.2    22  LEU22       0.2260
     19  O        106.5990   17.7250  110.1020 O.2    22  LEU22      -0.2867
     20  CB       105.7840   18.1180  107.2340 C.3    22  LEU22       0.0270
     21  CG       105.6390   18.7790  105.8700 C.3    22  LEU22       0.0019
     22  CD1      106.8150   19.7160  105.5800 C.3    22  LEU22       0.0001
     23  CD2      105.5560   17.7400  104.7790 C.3    22  LEU22       0.0001
     24  N        109.9660   22.9250  105.2440 N.3    32  VAL32      -0.1245
     25  CA       110.1060   23.4480  103.8650 C.3    32  VAL32       0.1561
     26  C        110.1640   24.9740  103.9420 C.2    32  VAL32       0.2260
     27  O        109.2550   25.6190  104.4900 O.2    32  VAL32      -0.2867
     28  CB       108.9400   23.0100  102.9660 C.3    32  VAL32       0.0252
     29  CG1      109.1050   23.5460  101.5140 C.3    32  VAL32       0.0019
     30  CG2      108.8550   21.4720  102.9090 C.3    32  VAL32       0.0019
     31  N        114.6950   22.0040   95.4840 N.3    60  PHE60      -0.1241
     32  CA       113.8740   21.5330   94.3670 C.3    60  PHE60       0.1605
     33  C        113.0770   22.6980   93.8510 C.2    60  PHE60       0.2264
     34  O        112.5870   23.5020   94.6270 O.2    60  PHE60      -0.2867
     35  CB       112.9290   20.3660   94.7520 C.3    60  PHE60       0.0534
     36  CG       111.8920   20.6990   95.8010 C.ar   60  PHE60      -0.0203
     37  CD1      110.5480   20.8650   95.4540 C.ar   60  PHE60      -0.0042
     38  CD2      112.2380   20.7960   97.1590 C.ar   60  PHE60      -0.0042
     39  CE1      109.6010   21.1440   96.4170 C.ar   60  PHE60      -0.0003
     40  CE2      111.2820   21.0800   98.1440 C.ar   60  PHE60      -0.0003
     41  CZ       109.9450   21.2650   97.7650 C.ar   60  PHE60      -0.0000
     42  N        109.8390   24.3330   91.9270 N.3    62  ILE62      -0.1245
     43  CA       108.4590   24.1490   91.5200 C.3    62  ILE62       0.1561
     44  C        108.1120   25.2800   90.5490 C.2    62  ILE62       0.2260
     45  O        108.6690   26.3930   90.6430 O.2    62  ILE62      -0.2867
     46  CB       107.5000   24.1090   92.7290 C.3    62  ILE62       0.0252
     47  CG1      107.3770   25.4450   93.4290 C.3    62  ILE62       0.0019
     48  CG2      107.9350   23.0390   93.7200 C.3    62  ILE62       0.0019
     49  CD1      106.1170   25.5580   94.3240 C.3    62  ILE62       0.0001
     50  N        112.6340   25.7740   96.2920 N.3    71  LYS71      -0.1245
     51  CA       112.2420   25.4460   97.6560 C.3    71  LYS71       0.1561
     52  C        113.3420   24.5920   98.2770 C.2    71  LYS71       0.2260
     53  O        114.1230   23.9650   97.5580 O.2    71  LYS71      -0.2867
     54  CB       110.9260   24.6550   97.6510 C.3    71  LYS71       0.0271
     55  CG       109.7710   25.3350   96.8920 C.3    71  LYS71       0.0035
     56  CD       109.5000   26.7150   97.4630 C.3    71  LYS71       0.0206
     57  CE       108.4670   27.4730   96.6270 C.3    71  LYS71       0.1093
     58  NZ       108.3010   28.8550   97.1540 N.3    71  LYS71      -0.1314
     59  N        103.7190   13.5370  100.7600 N.3    90  TYR90      -0.1227
     60  CA       102.9000   14.7100  101.0910 C.3    90  TYR90       0.1736
     61  C        103.2900   15.9080  100.2180 C.2    90  TYR90       0.2595
     62  O        102.4220   16.6000   99.6660 O.2    90  TYR90      -0.2718
     63  CB       103.0030   15.0560  102.5780 C.3    90  TYR90       0.0548
     64  CG       102.0560   16.1750  102.9800 C.ar   90  TYR90      -0.0200
     65  CD1      100.8060   15.8840  103.5220 C.ar   90  TYR90      -0.0009
     66  CD2      102.3990   17.5180  102.8020 C.ar   90  TYR90      -0.0009
     67  CE1       99.9230   16.8960  103.8720 C.ar   90  TYR90       0.0417
     68  CE2      101.5130   18.5420  103.1700 C.ar   90  TYR90       0.0417
     69  CZ       100.2900   18.2130  103.6990 C.ar   90  TYR90       0.1957
     70  OH        99.3890   19.2020  104.0550 O.3    90  TYR90      -0.2866
     71  N        104.5840   16.1410  100.0650 N.am   91  ILE91      -0.1980
     72  CA       105.0450   17.2380   99.2170 C.3    91  ILE91       0.1595
     73  C        104.6680   16.9900   97.7640 C.2    91  ILE91       0.2287
     74  O        104.2080   17.8920   97.0780 O.2    91  ILE91      -0.2864
     75  CB       106.5530   17.4740   99.3820 C.3    91  ILE91       0.0276
     76  CG1      106.8260   17.9270  100.8200 C.3    91  ILE91       0.0022
     77  CG2      107.0890   18.4720   98.3250 C.3    91  ILE91       0.0022
     78  CD1      108.2810   18.0350  101.1850 C.3    91  ILE91       0.0001
     79  N        101.0280   17.8720   97.2880 N.3    94  THR94      -0.1203
     80  CA       100.8080   19.3300   97.2910 C.3    94  THR94       0.1994
     81  C        101.3230   19.9620   95.9860 C.2    94  THR94       0.2617
     82  O        100.6350   20.7560   95.3310 O.2    94  THR94      -0.2717
     83  CB       101.4810   19.9820   98.5140 C.3    94  THR94       0.1784
     84  OG1      100.9980   19.3420   99.7140 O.3    94  THR94      -0.2211
     85  CG2      101.1280   21.4790   98.5890 C.3    94  THR94       0.0376
     86  N        102.5410   19.6140   95.5980 N.am   95  VAL95      -0.1979
     87  CA       103.1350   20.1860   94.3830 C.3    95  VAL95       0.1595
     88  C        102.3070   19.8910   93.1150 C.2    95  VAL95       0.2287
     89  O        102.1120   20.7690   92.2730 O.2    95  VAL95      -0.2864
     90  CB       104.5940   19.6750   94.2180 C.3    95  VAL95       0.0276
     91  CG1      105.1290   20.0040   92.8170 C.3    95  VAL95       0.0022
     92  CG2      105.4890   20.2450   95.3230 C.3    95  VAL95       0.0022
     93  N         99.5390   22.5780   92.0960 N.3    98  GLN98      -0.1245
     94  CA        99.7410   24.0050   91.8890 C.3    98  GLN98       0.1566
     95  C        100.5090   24.3940   90.6550 C.2    98  GLN98       0.2260
     96  O        100.7640   23.5710   89.7930 O.2    98  GLN98      -0.2867
     97  CB       100.2780   24.6780   93.1330 C.3    98  GLN98       0.0367
     98  CG       101.5020   24.0270   93.7330 C.3    98  GLN98       0.0905
     99  CD       101.6100   24.3770   95.2000 C.2    98  GLN98       0.2608
    100  OE1      102.5780   25.0280   95.6090 O.2    98  GLN98      -0.2717
    101  NE2      100.5880   23.9850   96.0040 N.am   98  GLN98      -0.0878
@<TRIPOS>BOND
     1    96    95    2
     2    44    45    2
     3    44    43    1
     4    95    94    1
     5    43    42    1
     6    43    46    1
     7    94    93    1
     8    94    97    1
     9    89    88    2
    10    46    47    1
    11    46    48    1
    12    91    90    1
    13    88    87    1
    14    97    98    1
    15    47    49    1
    16    98    99    1
    17    33    32    1
    18    33    34    2
    19    90    87    1
    20    90    92    1
    21    32    35    1
    22    32    31    1
    23    87    86    1
    24    35    36    1
    25    99   100    2
    26    99   101   am
    27    82    81    2
    28    37    36   ar
    29    37    39   ar
    30    86    81   am
    31    36    38   ar
    32    81    80    1
    33    50    51    1
    34    39    41   ar
    35    57    58    1
    36    57    56    1
    37    55    56    1
    38    55    54    1
    39    74    73    2
    40    38    40   ar
    41    79    80    1
    42    80    83    1
    43    53    52    2
    44    54    51    1
    45    51    52    1
    46    73    72    1
    47    41    40   ar
    48    77    75    1
    49    83    85    1
    50    83    84    1
    51    72    75    1
    52    72    71    1
    53    75    76    1
    54    62    61    2
    55    71    61   am
    56    61    60    1
    57    59    60    1
    58    76    78    1
    59    60    63    1
    60    29    28    1
    61    63    64    1
    62    66    64   ar
    63    66    68   ar
    64    30    28    1
    65    28    25    1
    66    64    65   ar
    67    68    69   ar
    68    65    67   ar
    69    69    67   ar
    70    69    70    1
    71    25    26    1
    72    25    24    1
    73    26    27    2
    74    14    13    2
    75    23    21    1
    76    13    12    1
    77    13    15   am
    78    22    21    1
    79    12     9    1
    80    21    20    1
    81     7     5    1
    82     8     9    1
    83     6     5    1
    84    11    10    2
    85     9    10    1
    86     5     2    1
    87    20    17    1
    88     2     1    1
    89     2     3    1
    90    17    16    1
    91    17    18    1
    92     3     4    2
    93    18    19    2
