@<TRIPOS>MOLECULE
tmp/2j98A00.pdb
 130 123 0 0 0
SMALL
GASTEIGER

@<TRIPOS>ATOM
      1  N         -1.0650   12.6060  142.9450 N.3     9  VAL9       -0.1245
      2  CA        -1.0990   13.4100  144.1470 C.3     9  VAL9        0.1561
      3  C         -1.6230   12.5710  145.2850 C.2     9  VAL9        0.2260
      4  O         -2.5340   11.7460  145.0960 O.2     9  VAL9       -0.2867
      5  CB        -1.9250   14.6590  143.9370 C.3     9  VAL9        0.0252
      6  CG1       -2.1730   15.3710  145.2440 C.3     9  VAL9        0.0019
      7  CG2       -1.1680   15.5970  143.0290 C.3     9  VAL9        0.0019
      8  N         -0.3560   19.9700  156.6000 N.3    23  GLU23      -0.1231
      9  CA        -1.0520   19.0130  155.7670 C.3    23  GLU23       0.1699
     10  C         -0.8460   19.5260  154.3620 C.2    23  GLU23       0.2593
     11  O         -0.7620   20.7220  154.1260 O.2    23  GLU23      -0.2718
     12  CB        -2.5460   19.0420  156.0680 C.3    23  GLU23       0.0402
     13  CG        -2.8620   19.1560  157.5440 C.3    23  GLU23       0.1161
     14  CD        -4.1290   18.4590  157.9140 C.2    23  GLU23       0.3649
     15  OE1       -4.1110   17.6790  158.9030 O.co2  23  GLU23      -0.2457
     16  OE2       -5.1460   18.7140  157.2380 O.co2  23  GLU23      -0.2457
     17  N         -0.8120   18.6320  153.4040 N.am   24  GLY24      -0.1942
     18  CA        -0.5460   19.1020  152.0510 C.3    24  GLY24       0.2014
     19  C         -0.5410   17.9440  151.1190 C.2    24  GLY24       0.2638
     20  O         -1.0070   16.8500  151.4760 O.2    24  GLY24      -0.2714
     21  N         -0.0720   18.1940  149.8930 N.am   25  ASN25      -0.1972
     22  CA        -0.0870   17.1480  148.9040 C.3    25  ASN25       0.1688
     23  C          1.3230   16.7600  148.5400 C.2    25  ASN25       0.2292
     24  O          2.1310   17.6350  148.2440 O.2    25  ASN25      -0.2864
     25  CB        -0.7810   17.6000  147.6120 C.3    25  ASN25       0.1181
     26  CG        -2.2830   17.5390  147.7060 C.2    25  ASN25       0.2629
     27  OD1       -2.8530   16.8090  148.5290 O.2    25  ASN25      -0.2716
     28  ND2       -2.9510   18.3460  146.8660 N.am   25  ASN25      -0.0877
     29  N          3.4470   15.0850  145.5720 N.3    27  LEU27      -0.1245
     30  CA         3.3820   14.8290  144.1620 C.3    27  LEU27       0.1561
     31  C          4.3960   13.7140  143.8870 C.2    27  LEU27       0.2260
     32  O          5.5330   13.7870  144.3070 O.2    27  LEU27      -0.2867
     33  CB         3.7470   16.0780  143.3830 C.3    27  LEU27       0.0270
     34  CG         2.6540   17.1550  143.5110 C.3    27  LEU27       0.0019
     35  CD1        3.1530   18.5390  143.1240 C.3    27  LEU27       0.0001
     36  CD2        1.5310   16.7250  142.6060 C.3    27  LEU27       0.0001
     37  N          3.5560   20.0900  148.5560 N.3    41  VAL41      -0.1231
     38  CA         2.9670   21.4080  148.4970 C.3    41  VAL41       0.1692
     39  C          2.0840   21.5870  149.7000 C.2    41  VAL41       0.2593
     40  O          1.2020   20.7620  149.9650 O.2    41  VAL41      -0.2718
     41  CB         2.0890   21.5920  147.2440 C.3    41  VAL41       0.0266
     42  CG1        1.4140   22.9970  147.2570 C.3    41  VAL41       0.0020
     43  CG2        2.9760   21.4610  146.0290 C.3    41  VAL41       0.0020
     44  N          2.3150   22.6890  150.3940 N.am   42  THR42      -0.1939
     45  CA         1.4910   23.0300  151.5320 C.3    42  THR42       0.2028
     46  C          1.3190   24.5540  151.6590 C.2    42  THR42       0.2642
     47  O          1.7850   25.3050  150.7930 O.2    42  THR42      -0.2714
     48  CB         2.0740   22.3940  152.8220 C.3    42  THR42       0.1808
     49  OG1        1.2300   22.7500  153.9160 O.3    42  THR42      -0.2208
     50  CG2        3.5310   22.8570  153.0420 C.3    42  THR42       0.0379
     51  N          0.6160   24.9830  152.7010 N.am   43  THR43      -0.1950
     52  CA         0.3520   26.4290  152.9650 C.3    43  THR43       0.1897
     53  C          1.3380   27.0880  153.9480 C.2    43  THR43       0.2313
     54  O          1.2560   28.2940  154.1890 O.2    43  THR43      -0.2863
     55  CB        -1.0680   26.6230  153.5470 C.3    43  THR43       0.1794
     56  OG1       -1.2240   25.7620  154.6930 O.3    43  THR43      -0.2208
     57  CG2       -2.1200   26.2670  152.5140 C.3    43  THR43       0.0378
     58  N          4.5830   30.2480  145.8440 N.3    69  PHE69      -0.1241
     59  CA         3.8140   30.5140  144.6400 C.3    69  PHE69       0.1605
     60  C          2.3750   30.8160  145.0920 C.2    69  PHE69       0.2264
     61  O          2.0600   30.7250  146.2680 O.2    69  PHE69      -0.2867
     62  CB         3.8810   29.3960  143.5990 C.3    69  PHE69       0.0534
     63  CG         3.1810   28.0900  144.0050 C.ar   69  PHE69      -0.0203
     64  CD1        1.9330   27.7690  143.4870 C.ar   69  PHE69      -0.0042
     65  CD2        3.7820   27.2120  144.9140 C.ar   69  PHE69      -0.0042
     66  CE1        1.2830   26.5980  143.8300 C.ar   69  PHE69      -0.0003
     67  CE2        3.1540   26.0190  145.2640 C.ar   69  PHE69      -0.0003
     68  CZ         1.9060   25.6960  144.7160 C.ar   69  PHE69      -0.0000
     69  N         -1.9170   30.7690  144.3380 N.3    71  ILE71      -0.1245
     70  CA        -3.0230   30.2320  143.5960 C.3    71  ILE71       0.1561
     71  C         -4.2680   31.0860  143.8380 C.2    71  ILE71       0.2260
     72  O         -4.4250   31.7200  144.9110 O.2    71  ILE71      -0.2867
     73  CB        -3.3260   28.7480  143.9970 C.3    71  ILE71       0.0252
     74  CG1       -3.7750   28.6340  145.4570 C.3    71  ILE71       0.0019
     75  CG2       -2.0750   27.8740  143.7900 C.3    71  ILE71       0.0019
     76  CD1       -4.5420   27.2960  145.7390 C.3    71  ILE71       0.0001
     77  N          1.1350   29.4320  148.5030 N.3    80  LYS80      -0.1245
     78  CA         1.5280   28.0270  148.6860 C.3    80  LYS80       0.1561
     79  C          3.0400   27.9020  148.6930 C.2    80  LYS80       0.2260
     80  O          3.7420   28.7700  148.1520 O.2    80  LYS80      -0.2867
     81  CB         0.9900   27.1800  147.5480 C.3    80  LYS80       0.0271
     82  CG        -0.5250   27.2560  147.3950 C.3    80  LYS80       0.0035
     83  CD        -1.1740   26.7640  148.6670 C.3    80  LYS80       0.0206
     84  CE        -1.0920   25.2750  148.7640 C.3    80  LYS80       0.1093
     85  NZ        -2.2310   24.5760  148.0830 N.3    80  LYS80      -0.1314
     86  N          3.3150   20.2120  135.9400 N.3    99  TYR99      -0.1227
     87  CA         2.0820   19.5860  136.4410 C.3    99  TYR99       0.1736
     88  C          1.2830   20.5970  137.2670 C.2    99  TYR99       0.2595
     89  O          0.0630   20.7600  137.0870 O.2    99  TYR99      -0.2718
     90  CB         2.4260   18.3480  137.2580 C.3    99  TYR99       0.0548
     91  CG         1.2270   17.8310  138.0600 C.ar   99  TYR99      -0.0200
     92  CD1        0.4020   16.8280  137.5510 C.ar   99  TYR99      -0.0009
     93  CD2        0.9280   18.3850  139.2860 C.ar   99  TYR99      -0.0009
     94  CE1       -0.7150   16.4050  138.2920 C.ar   99  TYR99       0.0417
     95  CE2       -0.1720   17.9800  140.0180 C.ar   99  TYR99       0.0417
     96  CZ        -0.9660   16.9960  139.5260 C.ar   99  TYR99       0.1957
     97  OH        -2.0530   16.6310  140.2940 O.3    99  TYR99      -0.2866
     98  N          1.9710   21.3330  138.1120 N.am  100  ILE100     -0.1980
     99  CA         1.2770   22.3410  138.8990 C.3   100  ILE100      0.1595
    100  C          0.6560   23.4050  137.9790 C.2   100  ILE100      0.2287
    101  O         -0.5370   23.7480  138.1260 O.2   100  ILE100     -0.2864
    102  CB         2.2200   22.9570  139.9310 C.3   100  ILE100      0.0276
    103  CG1        2.4840   21.9370  141.0240 C.3   100  ILE100      0.0022
    104  CG2        1.5900   24.2480  140.5240 C.3   100  ILE100      0.0022
    105  CD1        3.6610   22.3620  141.9560 C.3   100  ILE100      0.0001
    106  N         -2.5690   22.2610  136.3180 N.3   103  THR103     -0.1203
    107  CA        -3.6840   21.7920  137.1280 C.3   103  THR103      0.1994
    108  C         -4.1650   22.8450  138.1260 C.2   103  THR103      0.2618
    109  O         -5.3180   22.8290  138.5480 O.2   103  THR103     -0.2717
    110  CB        -3.3290   20.4760  137.9000 C.3   103  THR103      0.1784
    111  OG1       -2.2210   20.7100  138.7240 O.3   103  THR103     -0.2211
    112  CG2       -2.9790   19.3760  136.9470 C.3   103  THR103      0.0376
    113  N         -3.2750   23.7560  138.4990 N.am  104  VAL104     -0.1965
    114  CA        -3.6030   24.8070  139.4830 C.3   104  VAL104      0.1727
    115  C         -3.8950   26.1290  138.7610 C.2   104  VAL104      0.2616
    116  O         -3.3550   26.3770  137.6970 O.2   104  VAL104     -0.2715
    117  CB        -2.4060   24.9450  140.5060 C.3   104  VAL104      0.0290
    118  CG1       -2.2920   26.3310  141.0680 C.3   104  VAL104      0.0023
    119  CG2       -2.5260   23.8780  141.6160 C.3   104  VAL104      0.0023
    120  N         -4.7830   26.9590  139.3120 N.am  105  ARG105     -0.1977
    121  CA        -4.9600   28.3100  138.7740 C.3   105  ARG105      0.1597
    122  C         -3.9490   29.2770  139.4090 C.2   105  ARG105      0.2287
    123  O         -4.1980   29.8250  140.4820 O.2   105  ARG105     -0.2864
    124  CB        -6.4190   28.8300  138.8960 C.3   105  ARG105      0.0334
    125  CG        -7.2880   28.3230  140.0840 C.3   105  ARG105      0.0492
    126  CD        -6.5260   28.2280  141.4360 C.3   105  ARG105      0.2205
    127  NE        -6.0330   26.8810  141.6860 N.pl3 105  ARG105     -0.0865
    128  CZ        -6.4420   26.0790  142.6690 C.cat 105  ARG105      0.5346
    129  NH1       -7.3470   26.4840  143.5690 N.pl3 105  ARG105      0.1354
    130  NH2       -5.9150   24.8740  142.7580 N.pl3 105  ARG105      0.1354
@<TRIPOS>BOND
     1    86    87    1
     2   106   107    1
     3    87    90    1
     4    87    88    1
     5   112   110    1
     6    89    88    2
     7   107   110    1
     8   107   108    1
     9    90    91    1
    10    88    98   am
    11    92    91   ar
    12    92    94   ar
    13   116   115    2
    14   110   111    1
    15   100   101    2
    16   100    99    1
    17    91    93   ar
    18    98    99    1
    19   108   113   am
    20   108   109    2
    21    94    96   ar
    22   113   114    1
    23   115   120   am
    24   115   114    1
    25   121   124    1
    26   121   120    1
    27   121   122    1
    28   124   125    1
    29    99   102    1
    30    93    95   ar
    31   122   123    2
    32   114   117    1
    33    96    95   ar
    34    96    97    1
    35   102   104    1
    36   102   103    1
    37   125   126    1
    38   117   118    1
    39   117   119    1
    40   103   105    1
    41   126   127    1
    42   127   128    2
    43    36    34    1
    44   128   130    1
    45   128   129    1
    46     1     2    1
    47     7     5    1
    48    35    34    1
    49    33    34    1
    50    33    30    1
    51    64    66   ar
    52    64    63   ar
    53    70    71    1
    54    70    73    1
    55    70    69    1
    56    62    63    1
    57    62    59    1
    58    75    73    1
    59    66    68   ar
    60    71    72    2
    61    31    30    1
    62    31    32    2
    63     5     2    1
    64     5     6    1
    65    73    74    1
    66    63    65   ar
    67     2     3    1
    68    30    29    1
    69    59    60    1
    70    59    58    1
    71    68    67   ar
    72    65    67   ar
    73    60    61    2
    74     4     3    2
    75    74    76    1
    76    43    41    1
    77    28    26   am
    78    41    42    1
    79    41    38    1
    80    82    81    1
    81    82    83    1
    82    81    78    1
    83    25    26    1
    84    25    22    1
    85    26    27    2
    86    85    84    1
    87    80    79    2
    88    24    23    2
    89    38    37    1
    90    38    39    1
    91    77    78    1
    92    23    22    1
    93    83    84    1
    94    78    79    1
    95    22    21    1
    96    39    40    2
    97    39    44   am
    98    21    19   am
    99    44    45    1
   100    47    46    2
   101    19    20    2
   102    19    18    1
   103    45    46    1
   104    45    48    1
   105    46    51   am
   106    18    17    1
   107    57    55    1
   108    51    52    1
   109    48    50    1
   110    48    49    1
   111    52    55    1
   112    52    53    1
   113    17    10   am
   114    55    56    1
   115    53    54    2
   116    11    10    2
   117    10     9    1
   118     9    12    1
   119     9     8    1
   120    12    13    1
   121    16    14   ar
   122    13    14    1
   123    14    15   ar
