@<TRIPOS>MOLECULE
tmp/2j9aA04.pdb
 134 124 0 0 0
SMALL
GASTEIGER

@<TRIPOS>ATOM
      1  N         62.1080   61.5520   10.0370 N.3   250  LYS250     -0.1245
      2  CA        62.4040   60.1340    9.8950 C.3   250  LYS250      0.1561
      3  C         61.1740   59.3640    9.3540 C.2   250  LYS250      0.2260
      4  O         60.1000   59.4160    9.9610 O.2   250  LYS250     -0.2867
      5  CB        62.8230   59.5750   11.2780 C.3   250  LYS250      0.0271
      6  CG        62.8860   58.0340   11.3500 C.3   250  LYS250      0.0035
      7  CD        63.2260   57.6020   12.8510 C.3   250  LYS250      0.0206
      8  CE        63.1400   56.0720   12.9480 C.3   250  LYS250      0.1093
      9  NZ        63.2420   55.6040   14.3700 N.3   250  LYS250     -0.1314
     10  N         59.4630   49.5640   11.5800 N.3   255  ASP255     -0.1239
     11  CA        60.7730   49.2380   12.2220 C.3   255  ASP255      0.1674
     12  C         60.6720   47.8860   12.9760 C.2   255  ASP255      0.2266
     13  O         60.1080   47.8020   14.0830 O.2   255  ASP255     -0.2867
     14  CB        61.1690   50.3460   13.1970 C.3   255  ASP255      0.1410
     15  CG        62.5890   50.1820   13.7380 C.2   255  ASP255      0.3668
     16  OD1       63.3070   49.3170   13.1980 O.co2 255  ASP255     -0.2456
     17  OD2       62.9360   50.9410   14.6650 O.co2 255  ASP255     -0.2456
     18  N         63.6460   43.5450   17.1940 N.3   262  LYS262     -0.1245
     19  CA        62.8540   43.9000   18.3850 C.3   262  LYS262      0.1561
     20  C         62.1100   42.6850   18.9310 C.2   262  LYS262      0.2260
     21  O         61.8720   41.7290   18.1970 O.2   262  LYS262     -0.2867
     22  CB        61.7930   44.9530   18.0010 C.3   262  LYS262      0.0271
     23  CG        62.4510   46.3170   17.7110 C.3   262  LYS262      0.0035
     24  CD        61.3860   47.3100   17.2470 C.3   262  LYS262      0.0206
     25  CE        61.9730   48.7360   16.9920 C.3   262  LYS262      0.1093
     26  NZ        62.7470   49.2770   18.2050 N.3   262  LYS262     -0.1314
     27  N         53.2390   48.8230   17.0160 N.3   269  LEU269     -0.1231
     28  CA        53.2720   50.3170   17.1050 C.3   269  LEU269      0.1693
     29  C         54.3550   50.9130   16.2050 C.2   269  LEU269      0.2591
     30  O         54.3170   52.1300   15.8980 O.2   269  LEU269     -0.2718
     31  CB        53.5340   50.7850   18.5280 C.3   269  LEU269      0.0284
     32  CG        52.3670   50.3770   19.4830 C.3   269  LEU269      0.0019
     33  CD1       52.7970   50.8080   20.9060 C.3   269  LEU269      0.0001
     34  CD2       51.0200   51.0130   19.0770 C.3   269  LEU269      0.0001
     35  N         55.2970   50.0680   15.7710 N.am  270  MET270     -0.1979
     36  CA        56.3860   50.5390   14.9140 C.3   270  MET270      0.1605
     37  C         55.9210   50.8770   13.4860 C.2   270  MET270      0.2287
     38  O         56.7100   51.3910   12.6900 O.2   270  MET270     -0.2864
     39  CB        57.5660   49.5520   14.8710 C.3   270  MET270      0.0413
     40  CG        58.3100   49.4160   16.2510 C.3   270  MET270      0.0598
     41  SD        58.9530   51.0510   16.8270 S.3   270  MET270     -0.1393
     42  CE        57.6240   51.6760   17.8590 C.3   270  MET270      0.0692
     43  N         56.6610   54.5280   13.0210 N.3   273  ASP273     -0.1239
     44  CA        58.0630   54.9810   13.0430 C.3   273  ASP273      0.1674
     45  C         58.3540   55.9450   11.8970 C.2   273  ASP273      0.2266
     46  O         59.4940   56.3400   11.7360 O.2   273  ASP273     -0.2867
     47  CB        59.0090   53.7990   12.9820 C.3   273  ASP273      0.1410
     48  CG        60.3370   54.0920   13.6750 C.2   273  ASP273      0.3668
     49  OD1       60.3900   54.9820   14.5490 O.co2 273  ASP273     -0.2456
     50  OD2       61.2770   53.3670   13.3160 O.co2 273  ASP273     -0.2456
     51  N         68.9480   48.5910   14.9100 N.3   332  ASP332     -0.1225
     52  CA        67.6750   49.1760   15.3420 C.3   332  ASP332      0.1805
     53  C         67.8630   50.6720   15.7080 C.2   332  ASP332      0.2598
     54  O         66.9050   51.3630   16.0210 O.2   332  ASP332     -0.2718
     55  CB        67.1450   48.3880   16.5430 C.3   332  ASP332      0.1424
     56  CG        65.6780   48.6820   16.8920 C.2   332  ASP332      0.3668
     57  OD1       64.9340   49.3720   16.1290 O.co2 332  ASP332     -0.2456
     58  OD2       65.2850   48.1750   17.9800 O.co2 332  ASP332     -0.2456
     59  N         69.1110   51.1410   15.6320 N.am  333  ALA333     -0.1966
     60  CA        69.3730   52.5820   15.7060 C.3   333  ALA333      0.1728
     61  C         69.4280   53.1140   14.2520 C.2   333  ALA333      0.2616
     62  O         70.4160   53.7060   13.8250 O.2   333  ALA333     -0.2715
     63  CB        70.7020   52.8670   16.4800 C.3   333  ALA333      0.0334
     64  N         68.3680   52.8210   13.4980 N.am  334  GLU334     -0.1963
     65  CA        68.3480   53.0890   12.0560 C.3   334  GLU334      0.1733
     66  C         67.8940   54.5080   11.7570 C.2   334  GLU334      0.2616
     67  O         68.2560   55.0520   10.7070 O.2   334  GLU334     -0.2715
     68  CB        67.4500   52.0690   11.3200 C.3   334  GLU334      0.0429
     69  CG        65.8960   52.4210   11.3210 C.3   334  GLU334      0.1163
     70  CD        65.2330   52.3180   12.7160 C.2   334  GLU334      0.3649
     71  OE1       65.7180   51.5200   13.5500 O.co2 334  GLU334     -0.2457
     72  OE2       64.2170   52.9890   12.9550 O.co2 334  GLU334     -0.2457
     73  N         67.0900   55.1000   12.6340 N.am  335  GLY335     -0.1955
     74  CA        66.6260   56.5000   12.3860 C.3   335  GLY335      0.1869
     75  C         67.7850   57.4700   12.2610 C.2   335  GLY335      0.2309
     76  O         67.8050   58.3690   11.3740 O.2   335  GLY335     -0.2863
     77  N         60.7190   59.6520   15.6540 N.3   359  THR359     -0.1203
     78  CA        60.3320   58.7440   16.7650 C.3   359  THR359      0.1994
     79  C         61.6210   57.9520   17.1220 C.2   359  THR359      0.2618
     80  O         61.7640   56.7900   16.7690 O.2   359  THR359     -0.2717
     81  CB        59.1980   57.8070   16.2870 C.3   359  THR359      0.1784
     82  OG1       59.5240   57.3530   14.9690 O.3   359  THR359     -0.2211
     83  CG2       57.8200   58.5610   16.2540 C.3   359  THR359      0.0376
     84  N         62.6020   58.6200   17.7320 N.am  360  LEU360     -0.1965
     85  CA        63.9850   58.1550   17.5560 C.3   360  LEU360      0.1728
     86  C         64.4360   57.1240   18.5990 C.2   360  LEU360      0.2617
     87  O         65.2110   56.2410   18.2740 O.2   360  LEU360     -0.2715
     88  CB        64.9750   59.3650   17.5190 C.3   360  LEU360      0.0311
     89  CG        66.3390   59.0580   16.8740 C.3   360  LEU360      0.0022
     90  CD1       66.2150   58.6410   15.3950 C.3   360  LEU360      0.0001
     91  CD2       67.3110   60.2810   17.0430 C.3   360  LEU360      0.0001
     92  N         64.0500   57.3260   19.8650 N.am  361  THR361     -0.1937
     93  CA        64.6310   56.4810   20.8890 C.3   361  THR361      0.2028
     94  C         63.6330   56.0350   21.9140 C.2   361  THR361      0.2642
     95  O         62.7720   56.8130   22.3110 O.2   361  THR361     -0.2714
     96  CB        65.8280   57.2110   21.6300 C.3   361  THR361      0.1808
     97  OG1       65.3710   58.3480   22.3620 O.3   361  THR361     -0.2208
     98  CG2       66.9420   57.6800   20.6500 C.3   361  THR361      0.0379
     99  N         63.7840   54.7990   22.4030 N.am  362  GLY362     -0.1954
    100  CA        63.0120   54.3640   23.5590 C.3   362  GLY362      0.1869
    101  C         63.3900   55.1940   24.7630 C.2   362  GLY362      0.2309
    102  O         62.5330   55.4370   25.6480 O.2   362  GLY362     -0.2863
    103  N         61.1160   58.1060   25.5750 N.3   365  ASP365     -0.1239
    104  CA        59.8900   57.7390   26.2580 C.3   365  ASP365      0.1674
    105  C         60.1590   57.4980   27.7530 C.2   365  ASP365      0.2266
    106  O         59.4090   57.9420   28.6230 O.2   365  ASP365     -0.2867
    107  CB        59.2970   56.4490   25.6590 C.3   365  ASP365      0.1410
    108  CG        58.0110   56.1000   26.3300 C.2   365  ASP365      0.3668
    109  OD1       57.1000   56.9530   26.2790 O.co2 365  ASP365     -0.2456
    110  OD2       57.9750   55.0970   27.0540 O.co2 365  ASP365     -0.2456
    111  N         59.4300   60.1190   20.0870 N.3   451  ALA451     -0.1231
    112  CA        59.0810   58.7320   20.4360 C.3   451  ALA451      0.1694
    113  C         58.0900   58.6480   21.6090 C.2   451  ALA451      0.2592
    114  O         57.1760   57.8030   21.6180 O.2   451  ALA451     -0.2718
    115  CB        60.3730   57.8890   20.7770 C.3   451  ALA451      0.0304
    116  N         58.2350   59.5220   22.6070 N.am  452  GLY452     -0.1957
    117  CA        57.3340   59.4720   23.7680 C.3   452  GLY452      0.1869
    118  C         55.9070   59.9970   23.4970 C.2   452  GLY452      0.2309
    119  O         54.9850   59.6410   24.1940 O.2   452  GLY452     -0.2863
    120  N         54.4020   59.5870   20.5300 N.3   454  MET454     -0.1230
    121  CA        53.9050   58.8570   19.3520 C.3   454  MET454      0.1702
    122  C         52.4420   58.4010   19.5120 C.2   454  MET454      0.2593
    123  O         51.6690   58.4110   18.5340 O.2   454  MET454     -0.2718
    124  CB        54.7990   57.6340   19.0910 C.3   454  MET454      0.0401
    125  CG        54.8650   57.1320   17.6520 C.3   454  MET454      0.0596
    126  SD        55.9820   55.7040   17.5540 S.3   454  MET454     -0.1393
    127  CE        55.0960   54.5750   18.6570 C.3   454  MET454      0.0692
    128  N         52.0790   57.9920   20.7210 N.am  455  THR455     -0.1953
    129  CA        50.7320   57.4580   20.9930 C.3   455  THR455      0.1897
    130  C         50.0360   58.2580   22.0970 C.2   455  THR455      0.2313
    131  O         50.6930   59.0120   22.8640 O.2   455  THR455     -0.2863
    132  CB        50.7770   55.9740   21.4570 C.3   455  THR455      0.1794
    133  OG1       51.3760   55.9270   22.7680 O.3   455  THR455     -0.2208
    134  CG2       51.6040   55.1240   20.5130 C.3   455  THR455      0.0378
@<TRIPOS>BOND
     1     3     2    1
     2     3     4    2
     3     2     1    1
     4     2     5    1
     5    67    66    2
     6     5     6    1
     7    68    69    1
     8    68    65    1
     9    69    70    1
    10     6     7    1
    11    76    75    2
    12    10    11    1
    13    46    45    2
    14    66    65    1
    15    66    73   am
    16    45    44    1
    17    65    64    1
    18    11    12    1
    19    11    14    1
    20    75    74    1
    21    74    73    1
    22    38    37    2
    23    70    72   ar
    24    70    71   ar
    25     7     8    1
    26     8     9    1
    27    12    13    2
    28    47    44    1
    29    47    48    1
    30    43    44    1
    31    14    15    1
    32    16    15   ar
    33    50    48   ar
    34    37    36    1
    35    64    61   am
    36    48    49   ar
    37    15    17   ar
    38    62    61    2
    39    61    60    1
    40    39    36    1
    41    39    40    1
    42    51    52    1
    43    36    35    1
    44    82    81    1
    45    52    53    1
    46    52    55    1
    47    90    89    1
    48    59    60    1
    49    59    53   am
    50    77    78    1
    51    60    63    1
    52    53    54    2
    53    35    29   am
    54    30    29    2
    55    57    56   ar
    56    29    28    1
    57    40    41    1
    58    83    81    1
    59    81    78    1
    60    55    56    1
    61    78    79    1
    62    80    79    2
    63    41    42    1
    64    89    91    1
    65    89    88    1
    66    56    58   ar
    67    25    24    1
    68    25    26    1
    69    27    28    1
    70    28    31    1
    71    79    84   am
    72    18    19    1
    73    24    23    1
    74    88    85    1
    75   126   125    1
    76   126   127    1
    77    85    84    1
    78    85    86    1
    79   125   124    1
    80    23    22    1
    81    22    19    1
    82    21    20    2
    83    87    86    2
    84    19    20    1
    85    31    32    1
    86   123   122    2
    87    86    92   am
    88    34    32    1
    89   124   121    1
    90   121   122    1
    91   121   120    1
    92    32    33    1
    93   122   128   am
    94    92    93    1
    95   111   112    1
    96   112   115    1
    97   112   113    1
    98   134   132    1
    99    98    96    1
   100   128   129    1
   101    93    96    1
   102    93    94    1
   103   129   132    1
   104   129   130    1
   105   132   133    1
   106   113   114    2
   107   113   116   am
   108    96    97    1
   109    94    95    2
   110    94    99   am
   111   130   131    2
   112    99   100    1
   113   116   117    1
   114   118   117    1
   115   118   119    2
   116   100   101    1
   117   101   102    2
   118   103   104    1
   119   107   104    1
   120   107   108    1
   121   104   105    1
   122   109   108   ar
   123   108   110   ar
   124   105   106    2
