@<TRIPOS>MOLECULE
tmp/2j9bA00.pdb
 210 200 0 0 0
SMALL
GASTEIGER

@<TRIPOS>ATOM
      1  N         18.5010    8.0710   71.0910 N.3     9  ILE9       -0.1245
      2  CA        19.4780    8.8480   70.3710 C.3     9  ILE9        0.1561
      3  C         20.8770    8.3250   70.6360 C.2     9  ILE9        0.2260
      4  O         21.6560    8.0890   69.6880 O.2     9  ILE9       -0.2867
      5  CB        19.3870   10.3390   70.7580 C.3     9  ILE9        0.0252
      6  CG1       18.0140   10.8880   70.3210 C.3     9  ILE9        0.0019
      7  CG2       20.5330   11.1420   70.0860 C.3     9  ILE9        0.0019
      8  CD1       17.6880   12.2960   70.8180 C.3     9  ILE9        0.0001
      9  N         21.3490    4.9180   68.7790 N.3    12  ARG12      -0.1231
     10  CA        21.5560    4.9210   67.3390 C.3    12  ARG12       0.1694
     11  C         22.9160    5.5040   67.0020 C.2    12  ARG12       0.2591
     12  O         23.6070    4.9880   66.1190 O.2    12  ARG12      -0.2718
     13  CB        20.3960    5.6160   66.5950 C.3    12  ARG12       0.0321
     14  CG        20.3060    7.1250   66.7620 C.3    12  ARG12       0.0489
     15  CD        18.8770    7.5800   66.6440 C.3    12  ARG12       0.2205
     16  NE        18.7760    9.0440   66.6310 N.pl3  12  ARG12      -0.0865
     17  CZ        17.6360    9.6850   66.8520 C.cat  12  ARG12       0.5346
     18  NH1       16.5260    9.0240   67.1480 N.pl3  12  ARG12       0.1354
     19  NH2       17.5930   11.0030   66.7540 N.pl3  12  ARG12       0.1354
     20  N         23.3150    6.5810   67.6680 N.am   13  GLN13      -0.1979
     21  CA        24.6440    7.1600   67.4750 C.3    13  GLN13       0.1601
     22  C         25.7310    6.1160   67.7230 C.2    13  GLN13       0.2287
     23  O         26.6910    5.9870   66.9380 O.2    13  GLN13      -0.2864
     24  CB        24.8340    8.3470   68.4110 C.3    13  GLN13       0.0394
     25  CG        24.0010    9.5680   67.9930 C.3    13  GLN13       0.0908
     26  CD        23.9920   10.6730   68.9860 C.2    13  GLN13       0.2608
     27  OE1       24.4520   10.5110   70.1460 O.2    13  GLN13      -0.2717
     28  NE2       23.5470   11.8220   68.5330 N.am   13  GLN13      -0.0878
     29  N         25.8580    3.5060   64.9340 N.3    16  PHE16      -0.1227
     30  CA        26.4840    4.0690   63.7530 C.3    16  PHE16       0.1736
     31  C         28.0000    4.1560   63.9090 C.2    16  PHE16       0.2596
     32  O         28.7290    3.9030   62.9720 O.2    16  PHE16      -0.2718
     33  CB        25.8990    5.4310   63.3990 C.3    16  PHE16       0.0547
     34  CG        24.5250    5.3720   62.7550 C.ar   16  PHE16      -0.0202
     35  CD1       24.2880    4.6270   61.6180 C.ar   16  PHE16      -0.0042
     36  CD2       23.4860    6.1270   63.2950 C.ar   16  PHE16      -0.0042
     37  CE1       23.0380    4.6130   61.0200 C.ar   16  PHE16      -0.0003
     38  CE2       22.2560    6.1240   62.7090 C.ar   16  PHE16      -0.0003
     39  CZ        22.0230    5.3780   61.5920 C.ar   16  PHE16      -0.0000
     40  N         28.4780    4.5580   65.0800 N.am   17  THR17      -0.1953
     41  CA        29.9190    4.6230   65.3340 C.3    17  THR17       0.1897
     42  C         30.5640    3.2600   65.1650 C.2    17  THR17       0.2313
     43  O         31.5780    3.1290   64.4960 O.2    17  THR17      -0.2863
     44  CB        30.2020    5.1920   66.7130 C.3    17  THR17       0.1794
     45  OG1       29.8170    6.5660   66.7570 O.3    17  THR17      -0.2208
     46  CG2       31.6660    5.0430   67.0990 C.3    17  THR17       0.0378
     47  N         29.3660    0.6720   63.4340 N.3    19  ILE19      -0.1231
     48  CA        29.2200    0.3340   62.0130 C.3    19  ILE19       0.1692
     49  C         30.3320    1.0130   61.2170 C.2    19  ILE19       0.2591
     50  O         31.0100    0.3780   60.3820 O.2    19  ILE19      -0.2718
     51  CB        27.8260    0.7540   61.4540 C.3    19  ILE19       0.0266
     52  CG1       26.7370   -0.1460   62.0470 C.3    19  ILE19       0.0019
     53  CG2       27.8110    0.7030   59.9410 C.3    19  ILE19       0.0020
     54  CD1       25.3390    0.4030   61.9060 C.3    19  ILE19       0.0001
     55  N         30.5260    2.3060   61.4580 N.am   20  ALA20      -0.1980
     56  CA        31.5340    3.0480   60.6740 C.3    20  ALA20       0.1597
     57  C         32.9220    2.4700   60.8900 C.2    20  ALA20       0.2287
     58  O         33.7150    2.3350   59.9480 O.2    20  ALA20      -0.2864
     59  CB        31.5120    4.5470   61.0460 C.3    20  ALA20       0.0319
     60  N         33.0160   -1.1840   59.2030 N.3    23  PHE23      -0.1241
     61  CA        32.9060   -1.0140   57.7640 C.3    23  PHE23       0.1605
     62  C         34.1800   -0.3970   57.2100 C.2    23  PHE23       0.2264
     63  O         34.6630   -0.8070   56.1500 O.2    23  PHE23      -0.2867
     64  CB        31.6990   -0.1300   57.4230 C.3    23  PHE23       0.0534
     65  CG        31.4850    0.0410   55.9380 C.ar   23  PHE23      -0.0203
     66  CD1       31.1400   -1.0310   55.1480 C.ar   23  PHE23      -0.0042
     67  CD2       31.6110    1.2680   55.3520 C.ar   23  PHE23      -0.0042
     68  CE1       30.9630   -0.9090   53.8110 C.ar   23  PHE23      -0.0003
     69  CE2       31.4480    1.4030   53.9980 C.ar   23  PHE23      -0.0003
     70  CZ        31.1100    0.3470   53.2470 C.ar   23  PHE23      -0.0000
     71  N         29.3300   -5.7730   60.8080 N.3    48  VAL48      -0.1245
     72  CA        28.5670   -4.7100   60.1520 C.3    48  VAL48       0.1561
     73  C         27.1410   -5.1920   59.8990 C.2    48  VAL48       0.2260
     74  O         26.1820   -4.4520   60.1420 O.2    48  VAL48      -0.2867
     75  CB        29.2470   -4.2610   58.8250 C.3    48  VAL48       0.0252
     76  CG1       28.3040   -3.4010   57.9890 C.3    48  VAL48       0.0019
     77  CG2       30.5860   -3.5600   59.0900 C.3    48  VAL48       0.0019
     78  N         18.4130    1.8720   63.0110 N.3    56  LEU56      -0.1245
     79  CA        17.2160    2.3760   62.3310 C.3    56  LEU56       0.1561
     80  C         15.9610    1.9480   63.0710 C.2    56  LEU56       0.2260
     81  O         14.8870    2.4530   62.7720 O.2    56  LEU56      -0.2867
     82  CB        17.2860    2.0380   60.8150 C.3    56  LEU56       0.0270
     83  CG        18.5020    2.6710   60.1160 C.3    56  LEU56       0.0019
     84  CD1       18.8850    2.0390   58.7890 C.3    56  LEU56       0.0001
     85  CD2       18.2410    4.2010   59.8880 C.3    56  LEU56       0.0001
     86  N         14.6750    5.4000   65.8360 N.3    59  PHE59      -0.1241
     87  CA        14.1430    6.6860   65.3340 C.3    59  PHE59       0.1605
     88  C         12.6150    6.7370   65.4870 C.2    59  PHE59       0.2264
     89  O         11.9120    7.2810   64.6250 O.2    59  PHE59      -0.2867
     90  CB        14.5200    6.9610   63.8770 C.3    59  PHE59       0.0534
     91  CG        15.9950    7.2310   63.6410 C.ar   59  PHE59      -0.0203
     92  CD1       16.4980    8.5300   63.6130 C.ar   59  PHE59      -0.0042
     93  CD2       16.8910    6.1900   63.4040 C.ar   59  PHE59      -0.0042
     94  CE1       17.8380    8.7920   63.3710 C.ar   59  PHE59      -0.0003
     95  CE2       18.2160    6.4470   63.1460 C.ar   59  PHE59      -0.0003
     96  CZ        18.7020    7.7460   63.1150 C.ar   59  PHE59      -0.0000
     97  N         21.6940   15.5230   68.9920 N.3    69  THR69      -0.1203
     98  CA        21.4020   14.7410   67.7650 C.3    69  THR69       0.1994
     99  C         21.6750   15.5090   66.4450 C.2    69  THR69       0.2618
    100  O         21.4800   16.7360   66.3940 O.2    69  THR69      -0.2717
    101  CB        19.9300   14.1940   67.7560 C.3    69  THR69       0.1784
    102  OG1       19.6700   13.4010   66.5920 O.3    69  THR69      -0.2211
    103  CG2       18.9400   15.3100   67.7530 C.3    69  THR69       0.0376
    104  N         22.1070   14.8090   65.3900 N.am   70  GLU70      -0.1965
    105  CA        22.2580   15.3290   64.0480 C.3    70  GLU70       0.1733
    106  C         21.1700   14.8240   63.1010 C.2    70  GLU70       0.2616
    107  O         21.2500   15.0290   61.8980 O.2    70  GLU70      -0.2715
    108  CB        23.6460   14.9620   63.5020 C.3    70  GLU70       0.0429
    109  CG        24.7870   15.5430   64.3060 C.3    70  GLU70       0.1163
    110  CD        26.1560   15.0990   63.8570 C.2    70  GLU70       0.3649
    111  OE1       26.3700   13.8810   63.5570 O.co2  70  GLU70      -0.2457
    112  OE2       27.0380   15.9930   63.7940 O.co2  70  GLU70      -0.2457
    113  N         20.1310   14.1830   63.6360 N.am   71  ALA71      -0.1977
    114  CA        19.0090   13.7350   62.8170 C.3    71  ALA71       0.1597
    115  C         18.1820   14.9530   62.3630 C.2    71  ALA71       0.2287
    116  O         17.7330   15.7350   63.2100 O.2    71  ALA71      -0.2864
    117  CB        18.1270   12.7720   63.6200 C.3    71  ALA71       0.0319
    118  N         13.6910   13.2500   58.9230 N.3    75  VAL75      -0.1245
    119  CA        13.5730   11.8500   59.3340 C.3    75  VAL75       0.1561
    120  C         12.1440   11.4930   59.6740 C.2    75  VAL75       0.2260
    121  O         11.6660   10.4500   59.2800 O.2    75  VAL75      -0.2867
    122  CB        14.4910   11.5380   60.5320 C.3    75  VAL75       0.0252
    123  CG1       14.1900   10.1500   61.1320 C.3    75  VAL75       0.0019
    124  CG2       15.9470   11.6380   60.1020 C.3    75  VAL75       0.0019
    125  N         12.7850    8.3660   54.3980 N.3    82  PHE82      -0.1241
    126  CA        13.7440    7.7870   55.3440 C.3    82  PHE82       0.1605
    127  C         13.7200    6.2740   55.2240 C.2    82  PHE82       0.2264
    128  O         14.7910    5.6200   55.2170 O.2    82  PHE82      -0.2867
    129  CB        13.4400    8.2260   56.7690 C.3    82  PHE82       0.0534
    130  CG        14.5410    7.9080   57.7420 C.ar   82  PHE82      -0.0203
    131  CD1       15.7720    8.5300   57.6420 C.ar   82  PHE82      -0.0042
    132  CD2       14.3280    7.0170   58.7510 C.ar   82  PHE82      -0.0042
    133  CE1       16.7740    8.2480   58.5440 C.ar   82  PHE82      -0.0003
    134  CE2       15.3470    6.7310   59.6550 C.ar   82  PHE82      -0.0003
    135  CZ        16.5350    7.3420   59.5560 C.ar   82  PHE82      -0.0000
    136  N         15.5420    5.1130   52.1510 N.3    85  ALA85      -0.1231
    137  CA        16.9730    5.1700   52.3990 C.3    85  ALA85       0.1694
    138  C         17.4560    4.0020   53.2680 C.2    85  ALA85       0.2591
    139  O         18.5190    3.4220   53.0240 O.2    85  ALA85      -0.2718
    140  CB        17.3460    6.4870   53.0270 C.3    85  ALA85       0.0304
    141  N         16.6450    3.6380   54.2430 N.am   86  ALA86      -0.1980
    142  CA        16.9570    2.5180   55.1410 C.3    86  ALA86       0.1597
    143  C         16.9320    1.2150   54.3680 C.2    86  ALA86       0.2287
    144  O         17.8390    0.3520   54.5100 O.2    86  ALA86      -0.2864
    145  CB        15.9660    2.4860   56.3140 C.3    86  ALA86       0.0319
    146  N         19.9770    0.7910   52.1430 N.3    89  PHE89      -0.1241
    147  CA        21.0980    0.3700   52.9610 C.3    89  PHE89       0.1605
    148  C         20.9930   -1.1100   53.2790 C.2    89  PHE89       0.2264
    149  O         21.9940   -1.8430   53.1730 O.2    89  PHE89      -0.2867
    150  CB        21.0890    1.2280   54.2210 C.3    89  PHE89       0.0534
    151  CG        22.1210    0.8550   55.2780 C.ar   89  PHE89      -0.0203
    152  CD1       23.4630    0.8080   54.9570 C.ar   89  PHE89      -0.0042
    153  CD2       21.7230    0.5340   56.5770 C.ar   89  PHE89      -0.0042
    154  CE1       24.3990    0.4880   55.9380 C.ar   89  PHE89      -0.0003
    155  CE2       22.6610    0.2190   57.5610 C.ar   89  PHE89      -0.0003
    156  CZ        23.9920    0.1910   57.2340 C.ar   89  PHE89      -0.0000
    157  N         27.3020   -0.2300   49.5380 N.3   115  THR115     -0.1218
    158  CA        26.9760    0.0960   50.9340 C.3   115  THR115      0.1862
    159  C         27.3450    1.5380   51.2680 C.2   115  THR115      0.2287
    160  O         26.5260    2.2930   51.8210 O.2   115  THR115     -0.2866
    161  CB        27.6880   -0.8900   51.9000 C.3   115  THR115      0.1770
    162  OG1       27.2320   -2.2020   51.6200 O.3   115  THR115     -0.2211
    163  CG2       27.3640   -0.5620   53.3700 C.3   115  THR115      0.0375
    164  N         24.9450    3.9780   49.9960 N.3   118  ALA118     -0.1231
    165  CA        23.7260    4.0260   50.8060 C.3   118  ALA118      0.1694
    166  C         23.9210    4.8680   52.0780 C.2   118  ALA118      0.2592
    167  O         23.0030    5.5850   52.5020 O.2   118  ALA118     -0.2718
    168  CB        23.2630    2.6200   51.1240 C.3   118  ALA118      0.0304
    169  N         25.0900    4.8120   52.7040 N.am  119  CYS119     -0.1970
    170  CA        25.3790    5.6790   53.8440 C.3   119  CYS119      0.1712
    171  C         25.2190    7.1400   53.4000 C.2   119  CYS119      0.2296
    172  O         24.5290    7.9320   54.0360 O.2   119  CYS119     -0.2864
    173  CB        26.7990    5.5010   54.3910 C.3   119  CYS119      0.0983
    174  SG        27.4850    3.8540   54.6070 S.3   119  CYS119     -0.0798
    175  N         21.6580    8.4340   52.4620 N.3   122  CYS122     -0.1221
    176  CA        20.8160    8.7640   53.6000 C.3   122  CYS122      0.1808
    177  C         21.3260   10.0480   54.2570 C.2   122  CYS122      0.2601
    178  O         20.5580   10.9400   54.5640 O.2   122  CYS122     -0.2717
    179  CB        20.8030    7.6420   54.6380 C.3   122  CYS122      0.0970
    180  SG        19.6260    8.0760   55.9120 S.3   122  CYS122     -0.0800
    181  N         22.6140   10.1760   54.4920 N.am  123  HIS123     -0.1975
    182  CA        23.1290   11.3630   55.1620 C.3   123  HIS123      0.1656
    183  C         22.8160   12.6420   54.4330 C.2   123  HIS123      0.2291
    184  O         22.4950   13.6520   55.0870 O.2   123  HIS123     -0.2864
    185  CB        24.6380   11.2650   55.3520 C.3   123  HIS123      0.0771
    186  CG        25.0390   10.2300   56.3620 C.ar  123  HIS123      0.0820
    187  ND1       26.3600   10.0330   56.6780 N.ar  123  HIS123     -0.2267
    188  CD2       24.3060    9.4110   57.1540 C.ar  123  HIS123      0.1154
    189  CE1       26.4270    9.0870   57.6250 C.ar  123  HIS123      0.1986
    190  NE2       25.1940    8.6860   57.9200 N.ar  123  HIS123     -0.2212
    191  N         19.1780   13.3160   55.3670 N.3   126  PHE126     -0.1227
    192  CA        18.6740   13.1340   56.7180 C.3   126  PHE126      0.1736
    193  C         19.6050   13.3960   57.8970 C.2   126  PHE126      0.2595
    194  O         19.1600   13.3600   59.0430 O.2   126  PHE126     -0.2718
    195  CB        18.0910   11.7300   56.8680 C.3   126  PHE126      0.0547
    196  CG        16.9770   11.4530   55.9400 C.ar  126  PHE126     -0.0202
    197  CD1       15.7370   12.0760   56.1300 C.ar  126  PHE126     -0.0042
    198  CD2       17.1520   10.6620   54.8100 C.ar  126  PHE126     -0.0042
    199  CE1       14.7140   11.8470   55.2580 C.ar  126  PHE126     -0.0003
    200  CE2       16.1060   10.4280   53.9300 C.ar  126  PHE126     -0.0003
    201  CZ        14.8770   11.0470   54.1450 C.ar  126  PHE126     -0.0000
    202  N         20.8830   13.6590   57.6470 N.am  127  LYS127     -0.1980
    203  CA        21.8450   13.9250   58.7080 C.3   127  LYS127      0.1596
    204  C         22.5100   15.2860   58.5350 C.2   127  LYS127      0.2287
    205  O         22.9710   15.6230   57.4440 O.2   127  LYS127     -0.2864
    206  CB        22.9500   12.8440   58.7130 C.3   127  LYS127      0.0298
    207  CG        23.9330   12.9590   59.8560 C.3   127  LYS127      0.0038
    208  CD        25.0830   11.9900   59.7020 C.3   127  LYS127      0.0206
    209  CE        26.1920   12.2570   60.6910 C.3   127  LYS127      0.1093
    210  NZ        26.9050   13.5810   60.4330 N.3   127  LYS127     -0.1314
@<TRIPOS>BOND
     1   157   158    1
     2   164   165    1
     3   165   168    1
     4   165   166    1
     5   158   159    1
     6   158   161    1
     7   159   160    2
     8   162   161    1
     9   161   163    1
    10   166   167    2
    11   166   169   am
    12   146   147    1
    13   136   137    1
    14   137   140    1
    15   137   138    1
    16   175   176    1
    17   169   170    1
    18   147   148    1
    19   147   150    1
    20   139   138    2
    21   149   148    2
    22    70    68   ar
    23    70    69   ar
    24   138   141   am
    25   171   170    1
    26   171   172    2
    27   176   177    1
    28   176   179    1
    29    68    66   ar
    30   170   173    1
    31   200   201   ar
    32   200   198   ar
    33    69    67   ar
    34   201   199   ar
    35   150   151    1
    36   141   142    1
    37   177   181   am
    38   177   178    2
    39   143   144    2
    40   143   142    1
    41   173   174    1
    42   125   126    1
    43   183   184    2
    44   183   182    1
    45   181   182    1
    46   179   180    1
    47   198   196   ar
    48   152   151   ar
    49   152   154   ar
    50   142   145    1
    51    66    65   ar
    52   182   185    1
    53   128   127    2
    54   127   126    1
    55   199   197   ar
    56   151   153   ar
    57   126   129    1
    58   185   186    1
    59    67    65   ar
    60   191   192    1
    61   154   156   ar
    62    65    64    1
    63   196   197   ar
    64   196   195    1
    65    63    62    2
    66   186   187   ar
    67   186   188   ar
    68   153   155   ar
    69   187   189   ar
    70   192   195    1
    71   192   193    1
    72   129   130    1
    73   188   190   ar
    74    62    61    1
    75   156   155   ar
    76    64    61    1
    77   205   204    2
    78   189   190   ar
    79   131   130   ar
    80   131   133   ar
    81   202   193   am
    82   202   203    1
    83   130   132   ar
    84    61    60    1
    85   193   194    2
    86    76    75    1
    87   204   203    1
    88   133   135   ar
    89   203   206    1
    90   206   207    1
    91   132   134   ar
    92    84    83    1
    93    75    77    1
    94    75    72    1
    95   118   119    1
    96   121   120    2
    97   119   120    1
    98   119   122    1
    99   135   134   ar
   100   208   207    1
   101   208   209    1
   102    85    83    1
   103    73    74    2
   104    73    72    1
   105    53    51    1
   106    58    57    2
   107   124   122    1
   108    83    82    1
   109    72    71    1
   110    50    49    2
   111   210   209    1
   112   122   123    1
   113    56    57    1
   114    56    59    1
   115    56    55    1
   116    82    79    1
   117    37    39   ar
   118    37    35   ar
   119    49    55   am
   120    49    48    1
   121    51    48    1
   122    51    52    1
   123    39    38   ar
   124    35    34   ar
   125   107   106    2
   126    54    52    1
   127    48    47    1
   128    79    78    1
   129    79    80    1
   130   115   114    1
   131   115   116    2
   132    38    36   ar
   133    34    36   ar
   134    34    33    1
   135    81    80    2
   136   114   117    1
   137   114   113    1
   138    32    31    2
   139   106   113   am
   140   106   105    1
   141    96    95   ar
   142    96    94   ar
   143    95    93   ar
   144    94    92   ar
   145    33    30    1
   146    93    91   ar
   147   108   105    1
   148   108   109    1
   149   111   110   ar
   150    92    91   ar
   151    91    90    1
   152    30    31    1
   153    30    29    1
   154   112   110   ar
   155   110   109    1
   156    90    87    1
   157    31    40   am
   158   105   104    1
   159    43    42    2
   160    89    88    2
   161    40    41    1
   162    42    41    1
   163    41    44    1
   164    87    88    1
   165    87    86    1
   166   104    99   am
   167    12    11    2
   168   100    99    2
   169    99    98    1
   170   102   101    1
   171    13    14    1
   172    13    10    1
   173    16    15    1
   174    16    17    2
   175    15    14    1
   176    44    45    1
   177    44    46    1
   178    19    17    1
   179    17    18    1
   180    23    22    2
   181    11    10    1
   182    11    20   am
   183    10     9    1
   184    21    20    1
   185    21    22    1
   186    21    24    1
   187   103   101    1
   188   101    98    1
   189    98    97    1
   190    25    24    1
   191    25    26    1
   192    28    26   am
   193    26    27    2
   194     4     3    2
   195     7     5    1
   196     6     5    1
   197     6     8    1
   198     2     3    1
   199     2     5    1
   200     2     1    1
