@<TRIPOS>MOLECULE
tmp/2j9dL01.pdb
 127 123 0 0 0
SMALL
GASTEIGER

@<TRIPOS>ATOM
      1  N         59.3810  115.8100  -63.9190 N.3     9  ILE9       -0.1245
      2  CA        59.3580  115.2110  -62.5700 C.3     9  ILE9        0.1561
      3  C         60.8230  115.0440  -62.1620 C.2     9  ILE9        0.2260
      4  O         61.5470  114.2630  -62.7610 O.2     9  ILE9       -0.2867
      5  CB        58.6210  113.8290  -62.5270 C.3     9  ILE9        0.0252
      6  CG1       57.2860  113.8960  -63.2470 C.3     9  ILE9        0.0019
      7  CG2       58.3900  113.3310  -61.1000 C.3     9  ILE9        0.0019
      8  CD1       56.3680  114.9070  -62.7190 C.3     9  ILE9        0.0001
      9  N         54.8490  115.9710  -55.4810 N.3    35  VAL35      -0.1231
     10  CA        54.2730  114.6880  -55.8850 C.3    35  VAL35       0.1692
     11  C         55.1160  113.5450  -55.2880 C.2    35  VAL35       0.2592
     12  O         56.1200  113.7730  -54.6030 O.2    35  VAL35      -0.2718
     13  CB        54.2080  114.5450  -57.4350 C.3    35  VAL35       0.0266
     14  CG1       53.5370  115.7810  -58.0860 C.3    35  VAL35       0.0020
     15  CG2       55.6090  114.2840  -58.0560 C.3    35  VAL35       0.0020
     16  N         54.6810  112.3220  -55.5180 N.am   36  LYS36      -0.1966
     17  CA        55.4750  111.1640  -55.1660 C.3    36  LYS36       0.1728
     18  C         55.5880  110.3100  -56.3980 C.2    36  LYS36       0.2617
     19  O         54.6700  110.2230  -57.1800 O.2    36  LYS36      -0.2715
     20  CB        54.8360  110.3840  -54.0310 C.3    36  LYS36       0.0311
     21  CG        54.8910  111.1050  -52.7120 C.3    36  LYS36       0.0038
     22  CD        54.0480  110.3850  -51.6790 C.3    36  LYS36       0.0206
     23  CE        54.3540  110.8030  -50.2490 C.3    36  LYS36       0.1093
     24  NZ        54.9620  112.1530  -50.1210 N.3    36  LYS36      -0.1314
     25  N         56.7180  109.6740  -56.5620 N.am   37  GLY37      -0.1940
     26  CA        56.9350  108.8630  -57.7250 C.3    37  GLY37       0.2014
     27  C         57.5540  107.5430  -57.3550 C.2    37  GLY37       0.2639
     28  O         58.2440  107.4160  -56.3340 O.2    37  GLY37      -0.2714
     29  N         57.2760  106.5730  -58.2080 N.am   38  ARG38      -0.1963
     30  CA        57.9610  105.3040  -58.2450 C.3    38  ARG38       0.1729
     31  C         58.6330  105.2350  -59.6050 C.2    38  ARG38       0.2617
     32  O         58.0650  105.6300  -60.6380 O.2    38  ARG38      -0.2715
     33  CB        56.9530  104.1750  -58.1260 C.3    38  ARG38       0.0348
     34  CG        57.5180  102.7800  -58.3120 C.3    38  ARG38       0.0492
     35  CD        56.4320  101.8600  -58.8450 C.3    38  ARG38       0.2205
     36  NE        55.5760  101.3400  -57.8130 N.pl3  38  ARG38      -0.0865
     37  CZ        54.4120  100.7380  -58.0280 C.cat  38  ARG38       0.5346
     38  NH1       53.7390  100.2950  -56.9940 N.pl3  38  ARG38       0.1354
     39  NH2       53.9170  100.5730  -59.2440 N.pl3  38  ARG38       0.1354
     40  N         59.8540  104.7460  -59.6100 N.am   39  GLY39      -0.1940
     41  CA        60.5170  104.4580  -60.8580 C.3    39  GLY39       0.2014
     42  C         61.0660  103.0640  -60.7810 C.2    39  GLY39       0.2639
     43  O         60.4940  102.1980  -60.1070 O.2    39  GLY39      -0.2714
     44  N         62.1710  102.8530  -61.4880 N.am   40  VAL40      -0.1963
     45  CA        63.0160  101.6860  -61.2710 C.3    40  VAL40       0.1727
     46  C         64.2060  102.0680  -60.3600 C.2    40  VAL40       0.2616
     47  O         65.0010  101.2070  -59.9750 O.2    40  VAL40      -0.2715
     48  CB        63.4480  101.0880  -62.6110 C.3    40  VAL40       0.0290
     49  CG1       62.2020  100.5910  -63.3480 C.3    40  VAL40       0.0023
     50  CG2       64.2300  102.1200  -63.4540 C.3    40  VAL40       0.0023
     51  N         64.2980  103.3640  -60.0110 N.am   41  GLN41      -0.1977
     52  CA        65.1170  103.8410  -58.8800 C.3    41  GLN41       0.1601
     53  C         64.9410  102.9510  -57.6340 C.2    41  GLN41       0.2287
     54  O         65.9060  102.6980  -56.9150 O.2    41  GLN41      -0.2864
     55  CB        64.7750  105.3120  -58.5340 C.3    41  GLN41       0.0394
     56  CG        65.2700  105.7980  -57.1360 C.3    41  GLN41       0.0908
     57  CD        65.0670  107.3050  -56.8680 C.2    41  GLN41       0.2608
     58  OE1       64.1130  107.9330  -57.3460 O.2    41  GLN41      -0.2717
     59  NE2       65.9730  107.8790  -56.0850 N.am   41  GLN41      -0.0878
     60  N         58.4660  107.7390  -53.6540 N.3    58  ILE58      -0.1245
     61  CA        59.5240  108.6830  -53.2500 C.3    58  ILE58       0.1561
     62  C         59.0960  110.1490  -53.5470 C.2    58  ILE58       0.2260
     63  O         58.6730  110.4240  -54.6760 O.2    58  ILE58      -0.2867
     64  CB        60.7890  108.4290  -54.1230 C.3    58  ILE58       0.0252
     65  CG1       61.2410  106.9760  -54.0220 C.3    58  ILE58       0.0019
     66  CG2       61.9380  109.3730  -53.7690 C.3    58  ILE58       0.0019
     67  CD1       62.4130  106.6600  -54.9620 C.3    58  ILE58       0.0001
     68  N         58.9640  113.6630  -54.9740 N.3    60  LYS60      -0.1245
     69  CA        59.5370  114.3120  -56.1570 C.3    60  LYS60       0.1561
     70  C         58.8450  115.6760  -56.3110 C.2    60  LYS60       0.2260
     71  O         57.8490  115.9670  -55.6590 O.2    60  LYS60      -0.2867
     72  CB        59.3050  113.4870  -57.4530 C.3    60  LYS60       0.0271
     73  CG        59.8930  112.0690  -57.4760 C.3    60  LYS60       0.0035
     74  CD        61.3980  112.0930  -57.5100 C.3    60  LYS60       0.0206
     75  CE        61.9920  110.7110  -57.6660 C.3    60  LYS60       0.1093
     76  NZ        63.4720  110.7990  -57.6780 N.3    60  LYS60      -0.1314
     77  N         72.5350  109.2160  -61.5460 N.3    87  ASN87      -0.1226
     78  CA        71.9540  108.0680  -60.8590 C.3    87  ASN87       0.1770
     79  C         70.5220  107.8090  -61.2950 C.2    87  ASN87       0.2439
     80  O         69.8110  108.7400  -61.6630 O.2    87  ASN87      -0.2733
     81  CB        71.9440  108.2950  -59.3620 C.3    87  ASN87       0.1168
     82  CG        73.3220  108.3660  -58.7900 C.2    87  ASN87       0.2627
     83  OD1       73.5930  109.1790  -57.9280 O.2    87  ASN87      -0.2716
     84  ND2       74.2090  107.5170  -59.2800 N.am   87  ASN87      -0.0877
     85  N         70.0740  106.5390  -61.2350 N.am   88  PRO88      -0.2718
     86  CA        68.6520  106.2770  -61.4560 C.3    88  PRO88       0.1535
     87  C         67.7410  107.1020  -60.5390 C.2    88  PRO88       0.2599
     88  O         68.0360  107.2940  -59.3740 O.2    88  PRO88      -0.2715
     89  CB        68.4990  104.7770  -61.1660 C.3    88  PRO88       0.0310
     90  CG        69.8420  104.2290  -61.2970 C.3    88  PRO88       0.0237
     91  CD        70.8120  105.2980  -60.9660 C.3    88  PRO88       0.0939
     92  N         66.6480  107.5900  -61.1110 N.am   89  GLY89      -0.1941
     93  CA        65.6870  108.4430  -60.4120 C.3    89  GLY89       0.2014
     94  C         65.8170  109.9310  -60.6880 C.2    89  GLY89       0.2639
     95  O         65.2380  110.7510  -59.9720 O.2    89  GLY89      -0.2714
     96  N         66.5890  110.2950  -61.7050 N.am   90  ASP90      -0.1957
     97  CA        66.7600  111.7040  -62.0800 C.3    90  ASP90       0.1840
     98  C         65.4700  112.3230  -62.6200 C.2    90  ASP90       0.2623
     99  O         65.2610  113.5300  -62.5480 O.2    90  ASP90      -0.2715
    100  CB        67.8660  111.8290  -63.1170 C.3    90  ASP90       0.1450
    101  CG        69.2330  111.9110  -62.4970 C.2    90  ASP90       0.3671
    102  OD1       69.3320  112.0740  -61.2710 O.co2  90  ASP90      -0.2456
    103  OD2       70.2170  111.8440  -63.2410 O.co2  90  ASP90      -0.2456
    104  N         64.6320  111.4940  -63.2120 N.am   91  GLY91      -0.1940
    105  CA        63.3230  111.9370  -63.6480 C.3    91  GLY91       0.2014
    106  C         63.0200  111.8490  -65.1290 C.2    91  GLY91       0.2638
    107  O         63.8090  111.3550  -65.9570 O.2    91  GLY91      -0.2714
    108  N         61.8450  112.3550  -65.4520 N.am   92  LYS92      -0.1977
    109  CA        61.3450  112.3370  -66.8150 C.3    92  LYS92       0.1596
    110  C         60.7000  113.6570  -67.1780 C.2    92  LYS92       0.2287
    111  O         60.1730  114.3610  -66.3290 O.2    92  LYS92      -0.2864
    112  CB        60.2650  111.2810  -66.9960 C.3    92  LYS92       0.0298
    113  CG        60.5280  109.9380  -66.4030 C.3    92  LYS92       0.0038
    114  CD        61.3780  109.0840  -67.2690 C.3    92  LYS92       0.0206
    115  CE        61.4960  107.6990  -66.6580 C.3    92  LYS92       0.1093
    116  NZ        62.5960  106.9380  -67.2800 N.3    92  LYS92      -0.1314
    117  N         57.8220  115.2340  -69.8880 N.3    94  PHE94      -0.1241
    118  CA        56.7180  114.9870  -70.8310 C.3    94  PHE94       0.1605
    119  C         56.3510  116.2890  -71.5050 C.2    94  PHE94       0.2264
    120  O         56.2550  117.3270  -70.8450 O.2    94  PHE94      -0.2867
    121  CB        55.4770  114.4200  -70.1250 C.3    94  PHE94       0.0534
    122  CG        55.7680  113.2600  -69.2060 C.ar   94  PHE94      -0.0203
    123  CD1       56.3090  112.0990  -69.7000 C.ar   94  PHE94      -0.0042
    124  CD2       55.4990  113.3370  -67.8520 C.ar   94  PHE94      -0.0042
    125  CE1       56.5680  111.0400  -68.8750 C.ar   94  PHE94      -0.0003
    126  CE2       55.7780  112.2890  -67.0170 C.ar   94  PHE94      -0.0003
    127  CZ        56.3060  111.1350  -67.5290 C.ar   94  PHE94      -0.0000
@<TRIPOS>BOND
     1   119   120    2
     2   119   118    1
     3   118   121    1
     4   118   117    1
     5   121   122    1
     6   123   122   ar
     7   123   125   ar
     8   122   124   ar
     9   125   127   ar
    10   124   126   ar
    11   127   126   ar
    12   116   115    1
    13   114   115    1
    14   114   113    1
    15   110   109    1
    16   110   111    2
    17   112   109    1
    18   112   113    1
    19   109   108    1
    20   107   106    2
    21   108   106   am
    22   106   105    1
    23     1     2    1
    24   105   104    1
    25    50    48    1
    26    49    48    1
    27     6     8    1
    28     6     5    1
    29   103   101   ar
    30   104    98   am
    31   100   101    1
    32   100    97    1
    33     4     3    2
    34    98    99    2
    35    98    97    1
    36    48    45    1
    37     2     5    1
    38     2     3    1
    39     5     7    1
    40   101   102   ar
    41    97    96    1
    42    96    94   am
    43    80    79    2
    44    77    78    1
    45    44    45    1
    46    44    42   am
    47    86    85    1
    48    86    89    1
    49    86    87    1
    50    90    89    1
    51    90    91    1
    52    79    85   am
    53    79    78    1
    54    45    46    1
    55    85    91    1
    56    92    87   am
    57    92    93    1
    58    78    81    1
    59    41    42    1
    60    41    40    1
    61    42    43    2
    62    94    93    1
    63    94    95    2
    64    32    31    2
    65    87    88    2
    66    46    51   am
    67    46    47    2
    68    51    52    1
    69    40    31   am
    70    31    30    1
    71    81    82    1
    72    84    82   am
    73    39    37    1
    74    52    55    1
    75    52    53    1
    76    35    34    1
    77    35    36    1
    78    82    83    2
    79    55    56    1
    80    34    33    1
    81    30    29    1
    82    30    33    1
    83    29    27   am
    84    14    13    1
    85    15    13    1
    86    37    36    2
    87    37    38    1
    88    26    27    1
    89    26    25    1
    90    76    75    1
    91    75    74    1
    92    53    54    2
    93    74    73    1
    94    73    72    1
    95    72    69    1
    96    13    10    1
    97    27    28    2
    98    58    57    2
    99    19    18    2
   100    56    57    1
   101    57    59   am
   102    25    18   am
   103    18    17    1
   104    70    69    1
   105    70    71    2
   106    69    68    1
   107    10     9    1
   108    10    11    1
   109    16    11   am
   110    16    17    1
   111    11    12    2
   112    17    20    1
   113    67    65    1
   114    63    62    2
   115    64    65    1
   116    64    66    1
   117    64    61    1
   118    20    21    1
   119    60    61    1
   120    62    61    1
   121    21    22    1
   122    22    23    1
   123    23    24    1
