@<TRIPOS>MOLECULE
tmp/2j9dL00.pdb
 85 81 0 0 0
SMALL
GASTEIGER

@<TRIPOS>ATOM
      1  N         57.7370  131.9440  -65.8340 N.3    29  GLY29      -0.1210
      2  CA        56.4280  131.4020  -65.4950 C.3    29  GLY29       0.1956
      3  C         56.4990  129.8930  -65.3960 C.2    29  GLY29       0.2612
      4  O         56.7040  129.2110  -66.3950 O.2    29  GLY29      -0.2717
      5  N         56.3890  129.3760  -64.1820 N.am   30  MET30      -0.1965
      6  CA        56.3220  127.9410  -63.9460 C.3    30  MET30       0.1736
      7  C         55.4060  127.6580  -62.7820 C.2    30  MET30       0.2617
      8  O         55.2180  128.5090  -61.9090 O.2    30  MET30      -0.2715
      9  CB        57.6940  127.3700  -63.6550 C.3    30  MET30       0.0427
     10  CG        58.3780  127.8910  -62.4050 C.3    30  MET30       0.0599
     11  SD        59.6780  126.7470  -61.9030 S.3    30  MET30      -0.1393
     12  CE        60.8350  127.0060  -63.2380 C.3    30  MET30       0.0692
     13  N         54.8420  126.4580  -62.7790 N.am   31  THR31      -0.1951
     14  CA        54.0170  125.9710  -61.6940 C.3    31  THR31       0.1897
     15  C         54.6960  124.7330  -61.0910 C.2    31  THR31       0.2313
     16  O         55.1350  123.8140  -61.8120 O.2    31  THR31      -0.2863
     17  CB        52.5940  125.6380  -62.2270 C.3    31  THR31       0.1794
     18  OG1       51.9730  126.8280  -62.7620 O.3    31  THR31      -0.2208
     19  CG2       51.7190  125.0730  -61.1440 C.3    31  THR31       0.0378
     20  N         55.8760  122.4150  -64.1610 N.3    64  GLU64      -0.1231
     21  CA        55.0540  122.5960  -65.3770 C.3    64  GLU64       0.1699
     22  C         55.3240  123.9850  -65.9470 C.2    64  GLU64       0.2592
     23  O         55.1980  124.9900  -65.2350 O.2    64  GLU64      -0.2718
     24  CB        53.5490  122.4810  -65.0690 C.3    64  GLU64       0.0402
     25  CG        53.0940  121.0590  -64.7100 C.3    64  GLU64       0.1161
     26  CD        51.6640  120.9840  -64.1650 C.2    64  GLU64       0.3649
     27  OE1       51.3640  121.6860  -63.1920 O.co2  64  GLU64      -0.2457
     28  OE2       50.8510  120.1820  -64.6760 O.co2  64  GLU64      -0.2457
     29  N         55.7350  124.0260  -67.2070 N.am   65  LEU65      -0.1966
     30  CA        56.0270  125.2640  -67.8900 C.3    65  LEU65       0.1728
     31  C         55.3660  125.2360  -69.2720 C.2    65  LEU65       0.2616
     32  O         55.6320  124.3300  -70.0630 O.2    65  LEU65      -0.2715
     33  CB        57.5430  125.3340  -67.9480 C.3    65  LEU65       0.0311
     34  CG        58.3470  126.4500  -68.5550 C.3    65  LEU65       0.0022
     35  CD1       59.6340  126.6110  -67.7910 C.3    65  LEU65       0.0001
     36  CD2       58.6220  126.0760  -69.9770 C.3    65  LEU65       0.0001
     37  N         54.4660  126.1890  -69.5410 N.am   66  VAL66      -0.1977
     38  CA        53.8510  126.3020  -70.8600 C.3    66  VAL66       0.1596
     39  C         54.6390  127.3280  -71.6640 C.2    66  VAL66       0.2287
     40  O         54.8330  128.4660  -71.2280 O.2    66  VAL66      -0.2864
     41  CB        52.3700  126.6510  -70.7880 C.3    66  VAL66       0.0276
     42  CG1       51.8010  126.7920  -72.2030 C.3    66  VAL66       0.0022
     43  CG2       51.6160  125.5490  -69.9740 C.3    66  VAL66       0.0022
     44  N         45.1850  134.5550  -70.2150 N.3   103  ARG103     -0.1231
     45  CA        45.5040  135.3670  -69.0500 C.3   103  ARG103      0.1694
     46  C         44.1770  135.7400  -68.3840 C.2   103  ARG103      0.2592
     47  O         43.3470  136.4270  -68.9930 O.2   103  ARG103     -0.2718
     48  CB        46.2780  136.6230  -69.4940 C.3   103  ARG103      0.0321
     49  CG        46.7100  137.5240  -68.3580 C.3   103  ARG103      0.0489
     50  CD        47.5560  138.6900  -68.8380 C.3   103  ARG103      0.2205
     51  NE        48.8410  138.2370  -69.3940 N.pl3 103  ARG103     -0.0865
     52  CZ        49.6690  138.9950  -70.1060 C.cat 103  ARG103      0.5346
     53  NH1       50.8060  138.4890  -70.5760 N.pl3 103  ARG103      0.1354
     54  NH2       49.3720  140.2710  -70.3450 N.pl3 103  ARG103      0.1354
     55  N         43.9640  135.2560  -67.1610 N.am  104  VAL104     -0.1966
     56  CA        42.7350  135.5220  -66.4000 C.3   104  VAL104      0.1727
     57  C         42.4070  137.0320  -66.2830 C.2   104  VAL104      0.2616
     58  O         41.2470  137.4310  -66.3820 O.2   104  VAL104     -0.2715
     59  CB        42.8100  134.9180  -64.9550 C.3   104  VAL104      0.0290
     60  CG1       41.6490  135.4040  -64.0750 C.3   104  VAL104      0.0023
     61  CG2       42.8380  133.4260  -64.9960 C.3   104  VAL104      0.0023
     62  N         43.4250  137.8460  -66.0590 N.am  105  ARG105     -0.1977
     63  CA        43.2430  139.2870  -65.8470 C.3   105  ARG105      0.1597
     64  C         42.5740  139.9650  -67.0680 C.2   105  ARG105      0.2287
     65  O         41.6090  140.7170  -66.9180 O.2   105  ARG105     -0.2864
     66  CB        44.6030  139.9530  -65.5170 C.3   105  ARG105      0.0334
     67  CG        44.5370  141.4480  -65.1940 C.3   105  ARG105      0.0492
     68  CD        45.8590  142.0090  -64.6800 C.3   105  ARG105      0.2205
     69  NE        46.7760  142.4080  -65.7490 N.pl3 105  ARG105     -0.0865
     70  CZ        47.8870  141.7510  -66.1170 C.cat 105  ARG105      0.5346
     71  NH1       48.6230  142.2370  -67.1190 N.pl3 105  ARG105      0.1354
     72  NH2       48.2800  140.6180  -65.5140 N.pl3 105  ARG105      0.1354
     73  N         49.3770  136.0010  -73.8800 N.3   113  ALA113     -0.1231
     74  CA        48.9910  135.5600  -72.5410 C.3   113  ALA113      0.1694
     75  C         50.1690  135.2120  -71.6470 C.2   113  ALA113      0.2591
     76  O         50.0460  135.2620  -70.4230 O.2   113  ALA113     -0.2718
     77  CB        48.0590  134.3660  -72.6280 C.3   113  ALA113      0.0304
     78  N         51.3030  134.8560  -72.2410 N.am  114  LEU114     -0.1980
     79  CA        52.4550  134.3750  -71.4730 C.3   114  LEU114      0.1596
     80  C         53.6020  135.3760  -71.3700 C.2   114  LEU114      0.2287
     81  O         54.6580  135.0570  -70.8170 O.2   114  LEU114     -0.2864
     82  CB        52.9380  133.0350  -72.0450 C.3   114  LEU114      0.0297
     83  CG        51.9400  131.8790  -71.8230 C.3   114  LEU114      0.0022
     84  CD1       52.5190  130.5550  -72.2530 C.3   114  LEU114      0.0001
     85  CD2       51.4780  131.7940  -70.3590 C.3   114  LEU114      0.0001
@<TRIPOS>BOND
     1    73    74    1
     2    77    74    1
     3    74    75    1
     4    84    83    1
     5    78    75   am
     6    78    79    1
     7    42    41    1
     8    82    83    1
     9    82    79    1
    10    83    85    1
    11    39    40    2
    12    39    38    1
    13    75    76    2
    14    79    80    1
    15    80    81    2
    16    38    41    1
    17    38    37    1
    18    41    43    1
    19    53    52    1
    20    54    52    1
    21    44    45    1
    22    52    51    2
    23    32    31    2
    24    36    34    1
    25    37    31   am
    26    48    45    1
    27    48    49    1
    28    51    50    1
    29    31    30    1
    30    45    46    1
    31    47    46    2
    32    50    49    1
    33    34    33    1
    34    34    35    1
    35    46    55   am
    36    33    30    1
    37    30    29    1
    38    29    22   am
    39    55    56    1
    40    71    70    1
    41    64    65    2
    42    64    63    1
    43    56    57    1
    44    56    59    1
    45     4     3    2
    46    58    57    2
    47    57    62   am
    48    70    69    2
    49    70    72    1
    50    62    63    1
    51    22    21    1
    52    22    23    2
    53    63    66    1
    54     1     2    1
    55    69    68    1
    56    66    67    1
    57     2     3    1
    58     3     5   am
    59    21    24    1
    60    21    20    1
    61    67    68    1
    62    24    25    1
    63    61    59    1
    64    59    60    1
    65    25    26    1
    66    28    26   ar
    67     5     6    1
    68    26    27   ar
    69     6     9    1
    70     6     7    1
    71     9    10    1
    72    12    11    1
    73     7    13   am
    74     7     8    2
    75    13    14    1
    76    18    17    1
    77    10    11    1
    78    17    14    1
    79    17    19    1
    80    16    15    2
    81    14    15    1
