@<TRIPOS>MOLECULE
tmp/2j9dF00.pdb
 95 91 0 0 0
SMALL
GASTEIGER

@<TRIPOS>ATOM
      1  N         46.4930  131.4250    2.6810 N.3     9  ILE9       -0.1245
      2  CA        46.9730  131.5130    4.0650 C.3     9  ILE9        0.1561
      3  C         46.7450  132.9420    4.5420 C.2     9  ILE9        0.2260
      4  O         47.3910  133.8690    4.0800 O.2     9  ILE9       -0.2867
      5  CB        48.4700  131.2300    4.1910 C.3     9  ILE9        0.0252
      6  CG1       48.8820  129.9310    3.4820 C.3     9  ILE9        0.0019
      7  CG2       48.8800  131.2420    5.6940 C.3     9  ILE9        0.0019
      8  CD1       48.1760  128.7360    3.9470 C.3     9  ILE9        0.0001
      9  N         47.2140  126.7440   10.9810 N.3    35  VAL35      -0.1231
     10  CA        48.6210  126.5910   10.6550 C.3    35  VAL35       0.1692
     11  C         49.4310  127.6850   11.3360 C.2    35  VAL35       0.2592
     12  O         48.8840  128.5340   12.0510 O.2    35  VAL35      -0.2718
     13  CB        48.8760  126.6290    9.0990 C.3    35  VAL35       0.0266
     14  CG1       48.1400  125.4910    8.3910 C.3    35  VAL35       0.0020
     15  CG2       48.4980  127.9920    8.4610 C.3    35  VAL35       0.0020
     16  N         50.7340  127.6490   11.1340 N.am   36  LYS36      -0.1966
     17  CA        51.6090  128.7310   11.5330 C.3    36  LYS36       0.1728
     18  C         52.4120  129.1790   10.3290 C.2    36  LYS36       0.2617
     19  O         52.7710  128.3780    9.4720 O.2    36  LYS36      -0.2715
     20  CB        52.5230  128.3020   12.6660 C.3    36  LYS36       0.0311
     21  CG        51.7570  128.0420   13.9270 C.3    36  LYS36       0.0038
     22  CD        52.7050  127.7890   15.0640 C.3    36  LYS36       0.0206
     23  CE        51.9660  127.4390   16.3330 C.3    36  LYS36       0.1093
     24  NZ        52.8900  127.5660   17.4820 N.3    36  LYS36      -0.1314
     25  N         52.6770  130.4700   10.2480 N.am   37  GLY37      -0.1940
     26  CA        53.3700  131.0310    9.1140 C.3    37  GLY37       0.2014
     27  C         54.4760  131.9500    9.5490 C.2    37  GLY37       0.2639
     28  O         54.3550  132.6820   10.5520 O.2    37  GLY37      -0.2714
     29  N         55.5640  131.9090    8.7950 N.am   38  ARG38      -0.1963
     30  CA        56.7050  132.7580    9.0780 C.3    38  ARG38       0.1729
     31  C         56.3340  134.1860    8.7510 C.2    38  ARG38       0.2617
     32  O         56.0780  134.4940    7.5870 O.2    38  ARG38      -0.2715
     33  CB        57.9230  132.3470    8.2510 C.3    38  ARG38       0.0348
     34  CG        58.8300  131.3720    8.9600 C.3    38  ARG38       0.0492
     35  CD        60.2840  131.8130    8.8420 C.3    38  ARG38       0.2205
     36  NE        60.9980  130.9660    7.9110 N.pl3  38  ARG38      -0.0865
     37  CZ        62.1000  130.2910    8.2090 C.cat  38  ARG38       0.5346
     38  NH1       62.6390  130.3840    9.4250 N.pl3  38  ARG38       0.1354
     39  NH2       62.6630  129.5240    7.2760 N.pl3  38  ARG38       0.1354
     40  N         56.3090  135.0450    9.7770 N.am   39  GLY39      -0.1940
     41  CA        56.1110  136.4910    9.5790 C.3    39  GLY39       0.2014
     42  C         56.9680  137.0480    8.4450 C.2    39  GLY39       0.2638
     43  O         58.0400  136.5110    8.1510 O.2    39  GLY39      -0.2714
     44  N         56.4960  138.1130    7.7980 N.am   40  VAL40      -0.1977
     45  CA        57.2090  138.7030    6.6480 C.3    40  VAL40       0.1596
     46  C         58.3150  139.6500    7.1050 C.2    40  VAL40       0.2287
     47  O         59.3510  139.7580    6.4430 O.2    40  VAL40      -0.2864
     48  CB        56.2560  139.4190    5.6170 C.3    40  VAL40       0.0276
     49  CG1       54.8720  139.6670    6.1920 C.3    40  VAL40       0.0022
     50  CG2       56.8440  140.7350    5.1470 C.3    40  VAL40       0.0022
     51  N         48.1730  131.3060   11.7010 N.3    58  LYS58      -0.1245
     52  CA        47.4440  131.6950   10.5050 C.3    58  LYS58       0.1561
     53  C         46.3450  130.6730   10.2550 C.2    58  LYS58       0.2260
     54  O         46.3080  129.5970   10.8790 O.2    58  LYS58      -0.2867
     55  CB        48.3520  131.6850    9.2720 C.3    58  LYS58       0.0271
     56  CG        49.5850  132.5540    9.3230 C.3    58  LYS58       0.0035
     57  CD        49.1970  133.9540    9.2190 C.3    58  LYS58       0.0206
     58  CE        50.3700  134.8870    9.1870 C.3    58  LYS58       0.1093
     59  NZ        49.8630  136.2540    9.4270 N.3    58  LYS58      -0.1314
     60  N         52.0200  140.6830    6.1070 N.3    87  GLY87      -0.1210
     61  CA        51.4910  139.4710    6.7390 C.3    87  GLY87       0.1956
     62  C         50.0420  139.1820    6.4060 C.2    87  GLY87       0.2612
     63  O         49.4150  138.3410    7.0630 O.2    87  GLY87      -0.2717
     64  N         49.4960  139.8830    5.4030 N.am   88  ASP88      -0.1959
     65  CA        48.1120  139.6740    4.9620 C.3    88  ASP88       0.1840
     66  C         47.9180  138.3010    4.2860 C.2    88  ASP88       0.2623
     67  O         46.8100  137.7770    4.2470 O.2    88  ASP88      -0.2715
     68  CB        47.6830  140.7810    4.0100 C.3    88  ASP88       0.1450
     69  CG        47.2350  142.0570    4.7250 C.2    88  ASP88       0.3671
     70  OD1       47.0440  142.0680    5.9660 O.co2  88  ASP88      -0.2456
     71  OD2       47.0480  143.0620    4.0120 O.co2  88  ASP88      -0.2456
     72  N         48.9910  137.7340    3.7520 N.am   89  GLY89      -0.1940
     73  CA        48.9410  136.3590    3.2810 C.3    89  GLY89       0.2014
     74  C         49.1750  136.1820    1.8080 C.2    89  GLY89       0.2638
     75  O         49.4260  137.1470    1.0730 O.2    89  GLY89      -0.2714
     76  N         49.0950  134.9120    1.3860 N.am   90  LYS90      -0.1977
     77  CA        49.3460  134.5360    0.0090 C.3    90  LYS90       0.1596
     78  C         48.3560  133.4350   -0.4240 C.2    90  LYS90       0.2287
     79  O         47.8320  132.6790    0.4130 O.2    90  LYS90      -0.2864
     80  CB        50.7930  134.0720   -0.2100 C.3    90  LYS90       0.0298
     81  CG        51.8580  135.1220    0.1050 C.3    90  LYS90       0.0038
     82  CD        53.1290  134.8710   -0.6730 C.3    90  LYS90       0.0206
     83  CE        54.3840  135.3860    0.0390 C.3    90  LYS90       0.1093
     84  NZ        54.5890  136.8710   -0.0560 N.3    90  LYS90      -0.1314
     85  N         47.7520  130.3450   -3.3340 N.3    92  PHE92      -0.1241
     86  CA        48.3880  129.4180   -4.2960 C.3    92  PHE92       0.1605
     87  C         47.2910  128.6950   -5.0460 C.2    92  PHE92       0.2264
     88  O         46.2650  128.3550   -4.4640 O.2    92  PHE92      -0.2867
     89  CB        49.2550  128.3910   -3.5720 C.3    92  PHE92       0.0534
     90  CG        50.2760  129.0130   -2.6620 C.ar   92  PHE92      -0.0203
     91  CD1       51.2060  129.9110   -3.1590 C.ar   92  PHE92      -0.0042
     92  CD2       50.2870  128.7270   -1.3110 C.ar   92  PHE92      -0.0042
     93  CE1       52.1360  130.5160   -2.3160 C.ar   92  PHE92      -0.0003
     94  CE2       51.2130  129.3170   -0.4640 C.ar   92  PHE92      -0.0003
     95  CZ        52.1440  130.2190   -0.9770 C.ar   92  PHE92      -0.0000
@<TRIPOS>BOND
     1    87    88    2
     2    87    86    1
     3    86    89    1
     4    86    85    1
     5    89    90    1
     6    91    90   ar
     7    91    93   ar
     8    90    92   ar
     9    93    95   ar
    10    92    94   ar
    11    95    94   ar
    12    82    83    1
    13    82    81    1
    14    78    77    1
    15    78    79    2
    16    80    77    1
    17    80    81    1
    18    84    83    1
    19    77    76    1
    20    75    74    2
    21    76    74   am
    22    74    73    1
    23     1     2    1
    24    73    72    1
    25     6     8    1
    26     6     5    1
    27    72    66   am
    28    68    69    1
    29    68    65    1
    30    71    69   ar
    31     2     5    1
    32     2     3    1
    33     4     3    2
    34     5     7    1
    35    67    66    2
    36    66    65    1
    37    69    70   ar
    38    65    64    1
    39    50    48    1
    40    64    62   am
    41    48    49    1
    42    48    45    1
    43    60    61    1
    44    62    61    1
    45    62    63    2
    46    47    46    2
    47    45    46    1
    48    45    44    1
    49    39    37    1
    50    32    31    2
    51    44    42   am
    52    36    37    2
    53    36    35    1
    54    43    42    2
    55    37    38    1
    56    33    34    1
    57    33    30    1
    58    14    13    1
    59    42    41    1
    60    15    13    1
    61    31    30    1
    62    31    40   am
    63    29    30    1
    64    29    27   am
    65    35    34    1
    66    13    10    1
    67    26    27    1
    68    26    25    1
    69    58    57    1
    70    58    59    1
    71    57    56    1
    72    55    56    1
    73    55    52    1
    74    19    18    2
    75    27    28    2
    76    41    40    1
    77    25    18   am
    78    53    52    1
    79    53    54    2
    80    18    17    1
    81    52    51    1
    82    10     9    1
    83    10    11    1
    84    16    11   am
    85    16    17    1
    86    11    12    2
    87    17    20    1
    88    20    21    1
    89    21    22    1
    90    22    23    1
    91    23    24    1
