@<TRIPOS>MOLECULE
tmp/2j9dE00.pdb
 83 78 0 0 0
SMALL
GASTEIGER

@<TRIPOS>ATOM
      1  N         59.8100  132.3120    3.5660 N.3    29  GLY29      -0.1210
      2  CA        58.3820  132.0650    3.4790 C.3    29  GLY29       0.1956
      3  C         58.1120  130.5830    3.6090 C.2    29  GLY29       0.2612
      4  O         58.4610  129.8090    2.7190 O.2    29  GLY29      -0.2717
      5  N         57.5170  130.1680    4.7260 N.am   30  MET30      -0.1965
      6  CA        57.0490  128.7890    4.8690 C.3    30  MET30       0.1736
      7  C         55.7710  128.7380    5.6790 C.2    30  MET30       0.2617
      8  O         55.4940  129.6050    6.4900 O.2    30  MET30      -0.2715
      9  CB        58.0980  127.8630    5.5050 C.3    30  MET30       0.0427
     10  CG        58.4770  128.1590    6.9500 C.3    30  MET30       0.0599
     11  SD        59.1420  126.7110    7.8560 S.3    30  MET30      -0.1393
     12  CE        60.7040  126.4540    7.0330 C.3    30  MET30       0.0692
     13  N         54.9900  127.6980    5.4320 N.am   31  THR31      -0.1951
     14  CA        53.7920  127.4000    6.2180 C.3    31  THR31       0.1897
     15  C         54.0050  126.0690    6.9560 C.2    31  THR31       0.2313
     16  O         54.5190  125.0990    6.3880 O.2    31  THR31      -0.2863
     17  CB        52.5380  127.3190    5.3180 C.3    31  THR31       0.1794
     18  OG1       52.3980  128.5330    4.5860 O.3    31  THR31      -0.2208
     19  CG2       51.2640  127.0910    6.1390 C.3    31  THR31       0.0378
     20  N         55.5760  123.5060    4.3200 N.3    64  GLU64      -0.1231
     21  CA        55.2580  123.8020    2.9220 C.3    64  GLU64       0.1699
     22  C         55.9840  125.0870    2.5200 C.2    64  GLU64       0.2592
     23  O         55.8890  126.0930    3.2100 O.2    64  GLU64      -0.2718
     24  CB        53.7420  124.0120    2.7310 C.3    64  GLU64       0.0402
     25  CG        52.9000  122.7620    2.8180 C.3    64  GLU64       0.1161
     26  CD        51.3980  123.0630    2.9050 C.2    64  GLU64       0.3649
     27  OE1       50.9370  123.4910    3.9860 O.co2  64  GLU64      -0.2457
     28  OE2       50.6770  122.8630    1.9000 O.co2  64  GLU64      -0.2457
     29  N         56.7230  125.0250    1.4150 N.am   65  LEU65      -0.1966
     30  CA        57.3750  126.1890    0.8230 C.3    65  LEU65       0.1728
     31  C         57.1390  126.2190   -0.6470 C.2    65  LEU65       0.2616
     32  O         57.4540  125.2430   -1.3420 O.2    65  LEU65      -0.2715
     33  CB        58.8990  126.1110    0.8680 C.3    65  LEU65       0.0311
     34  CG        59.7370  126.0010    2.0950 C.3    65  LEU65       0.0022
     35  CD1       59.9240  124.5230    2.4010 C.3    65  LEU65       0.0001
     36  CD2       61.0350  126.7210    1.7740 C.3    65  LEU65       0.0001
     37  N         56.6860  127.3550   -1.1410 N.am   66  VAL66      -0.1963
     38  CA        56.5440  127.5300   -2.5740 C.3    66  VAL66       0.1727
     39  C         57.7380  128.3240   -3.0950 C.2    66  VAL66       0.2616
     40  O         58.0190  129.4180   -2.6430 O.2    66  VAL66      -0.2715
     41  CB        55.2250  128.2090   -2.9290 C.3    66  VAL66       0.0290
     42  CG1       55.1200  128.4380   -4.4110 C.3    66  VAL66       0.0023
     43  CG2       54.0810  127.3850   -2.4360 C.3    66  VAL66       0.0023
     44  N         58.4490  127.7430   -4.0470 N.am   67  VAL67      -0.1977
     45  CA        59.6930  128.3130   -4.5470 C.3    67  VAL67       0.1596
     46  C         59.7630  128.2090   -6.0590 C.2    67  VAL67       0.2287
     47  O         58.9880  127.4710   -6.6810 O.2    67  VAL67      -0.2864
     48  CB        60.9390  127.5700   -3.9410 C.3    67  VAL67       0.0276
     49  CG1       60.9290  127.6430   -2.4120 C.3    67  VAL67       0.0022
     50  CG2       60.9910  126.1230   -4.3990 C.3    67  VAL67       0.0022
     51  N         49.7050  137.6320   -4.0830 N.3   103  ARG103     -0.1245
     52  CA        49.8560  138.2600   -2.7590 C.3   103  ARG103      0.1563
     53  C         48.6120  139.0880   -2.3480 C.2   103  ARG103      0.2260
     54  O         48.1910  139.9840   -3.0540 O.2   103  ARG103     -0.2867
     55  CB        51.0720  139.1560   -2.7360 C.3   103  ARG103      0.0307
     56  CG        51.3900  139.6760   -1.3690 C.3   103  ARG103      0.0489
     57  CD        52.2640  140.8950   -1.4350 C.3   103  ARG103      0.2205
     58  NE        53.5380  140.6300   -2.1060 N.pl3 103  ARG103     -0.0865
     59  CZ        54.6130  140.1150   -1.5070 C.cat 103  ARG103      0.5346
     60  NH1       54.5950  139.7900   -0.2250 N.pl3 103  ARG103      0.1354
     61  NH2       55.7180  139.9250   -2.1990 N.pl3 103  ARG103      0.1354
     62  N         54.9810  138.2830   -6.2120 N.3   113  ALA113     -0.1231
     63  CA        54.2230  137.7810   -5.0650 C.3   113  ALA113      0.1694
     64  C         55.0790  136.9140   -4.1370 C.2   113  ALA113      0.2591
     65  O         54.8490  136.8630   -2.9220 O.2   113  ALA113     -0.2718
     66  CB        53.0140  137.0210   -5.5330 C.3   113  ALA113      0.0304
     67  N         56.0950  136.2740   -4.7000 N.am  114  LEU114     -0.1980
     68  CA        56.8650  135.2650   -3.9730 C.3   114  LEU114      0.1596
     69  C         58.0940  135.8190   -3.2240 C.2   114  LEU114      0.2287
     70  O         58.6710  135.1130   -2.4110 O.2   114  LEU114     -0.2864
     71  CB        57.2490  134.1410   -4.9520 C.3   114  LEU114      0.0297
     72  CG        57.3190  132.6630   -4.5270 C.3   114  LEU114      0.0022
     73  CD1       56.0750  132.1930   -3.7840 C.3   114  LEU114      0.0001
     74  CD2       57.5590  131.7980   -5.7740 C.3   114  LEU114      0.0001
     75  N         59.1710  137.5640   -0.2670 N.3   116  GLU116     -0.1245
     76  CA        58.4290  137.8040    1.0010 C.3   116  GLU116      0.1567
     77  C         58.3760  139.2520    1.4710 C.2   116  GLU116      0.2260
     78  O         57.5170  139.6120    2.2750 O.2   116  GLU116     -0.2867
     79  CB        58.9960  136.9400    2.1480 C.3   116  GLU116      0.0388
     80  CG        58.2120  135.6450    2.4600 C.3   116  GLU116      0.1160
     81  CD        57.6450  135.5890    3.8910 C.2   116  GLU116      0.3649
     82  OE1       56.4270  135.3150    4.0460 O.co2 116  GLU116     -0.2457
     83  OE2       58.4200  135.7870    4.8610 O.co2 116  GLU116     -0.2457
@<TRIPOS>BOND
     1    47    46    2
     2    62    63    1
     3    46    45    1
     4    74    72    1
     5    66    63    1
     6    63    64    1
     7    71    72    1
     8    71    68    1
     9    67    64   am
    10    67    68    1
    11    45    44    1
    12    45    48    1
    13    72    73    1
    14    42    41    1
    15    50    48    1
    16    64    65    2
    17    51    52    1
    18    44    39   am
    19    68    69    1
    20    48    49    1
    21    69    70    2
    22    39    40    2
    23    39    38    1
    24    54    53    2
    25    41    38    1
    26    41    43    1
    27    52    55    1
    28    52    53    1
    29    55    56    1
    30    38    37    1
    31    61    59    1
    32    58    59    2
    33    58    57    1
    34    59    60    1
    35    57    56    1
    36    32    31    2
    37    37    31   am
    38    31    30    1
    39    75    76    1
    40    30    33    1
    41    30    29    1
    42    33    34    1
    43    76    77    1
    44    76    79    1
    45    29    22   am
    46    77    78    2
    47    36    34    1
    48    28    26   ar
    49    34    35    1
    50    79    80    1
    51    80    81    1
    52    22    21    1
    53    22    23    2
    54     4     3    2
    55    24    25    1
    56    24    21    1
    57    25    26    1
    58    26    27   ar
    59    21    20    1
    60     2     1    1
    61     2     3    1
    62     3     5   am
    63    81    82   ar
    64    81    83   ar
    65    18    17    1
    66     5     6    1
    67     6     9    1
    68     6     7    1
    69    17    19    1
    70    17    14    1
    71    13     7   am
    72    13    14    1
    73     9    10    1
    74     7     8    2
    75    14    15    1
    76    16    15    2
    77    10    11    1
    78    12    11    1
