@<TRIPOS>MOLECULE
tmp/2j9eB00.pdb
 127 123 0 0 0
SMALL
GASTEIGER

@<TRIPOS>ATOM
      1  N         21.8150    9.3000   19.0170 N.3     9  ILE9       -0.1245
      2  CA        22.9370    9.7750   18.2360 C.3     9  ILE9        0.1561
      3  C         24.1710    9.0790   18.8170 C.2     9  ILE9        0.2260
      4  O         24.4760    9.2800   19.9920 O.2     9  ILE9       -0.2867
      5  CB        23.1170   11.2860   18.3210 C.3     9  ILE9        0.0252
      6  CG1       21.8430   12.0630   17.9640 C.3     9  ILE9        0.0019
      7  CG2       24.2750   11.7090   17.4200 C.3     9  ILE9        0.0019
      8  CD1       21.2020   11.6900   16.7010 C.3     9  ILE9        0.0001
      9  N         24.7930   11.8220   10.2340 N.3    35  VAL35      -0.1231
     10  CA        24.6540   13.1660   10.7210 C.3    35  VAL35       0.1692
     11  C         26.0110   13.6890   11.1870 C.2    35  VAL35       0.2592
     12  O         27.0350   13.0030   11.0820 O.2    35  VAL35      -0.2718
     13  CB        23.5890   13.2640   11.8510 C.3    35  VAL35       0.0266
     14  CG1       22.2430   12.7820   11.3690 C.3    35  VAL35       0.0020
     15  CG2       24.0460   12.4580   13.0790 C.3    35  VAL35       0.0020
     16  N         26.0200   14.9250   11.6310 N.am   36  LYS36      -0.1966
     17  CA        27.2050   15.5310   12.2150 C.3    36  LYS36       0.1728
     18  C         26.7930   16.1270   13.5420 C.2    36  LYS36       0.2617
     19  O         25.6990   16.6940   13.6720 O.2    36  LYS36      -0.2715
     20  CB        27.7840   16.6210   11.3130 C.3    36  LYS36       0.0311
     21  CG        28.2890   16.1270    9.9640 C.3    36  LYS36       0.0038
     22  CD        28.6220   17.3120    9.0400 C.3    36  LYS36       0.0206
     23  CE        29.1470   16.8710    7.6700 C.3    36  LYS36       0.1093
     24  NZ        28.0600   16.9190    6.6640 N.3    36  LYS36      -0.1314
     25  N         27.6350   15.9750   14.5440 N.am   37  GLY37      -0.1940
     26  CA        27.2640   16.4540   15.8590 C.3    37  GLY37       0.2014
     27  C         28.3000   17.3360   16.4510 C.2    37  GLY37       0.2639
     28  O         29.4810   17.1870   16.1570 O.2    37  GLY37      -0.2714
     29  N         27.8220   18.2660   17.2550 N.am   38  ARG38      -0.1963
     30  CA        28.6410   19.1370   18.0500 C.3    38  ARG38       0.1729
     31  C         28.3690   18.7920   19.4870 C.2    38  ARG38       0.2617
     32  O         27.2020   18.7630   19.9470 O.2    38  ARG38      -0.2715
     33  CB        28.2740   20.5920   17.8340 C.3    38  ARG38       0.0348
     34  CG        29.3170   21.4960   18.4660 C.3    38  ARG38       0.0492
     35  CD        29.2990   22.8520   17.8640 C.3    38  ARG38       0.2205
     36  NE        28.0940   23.5640   18.2340 N.pl3  38  ARG38      -0.0865
     37  CZ        27.9320   24.8670   18.0660 C.cat  38  ARG38       0.5346
     38  NH1       28.9080   25.5910   17.5250 N.pl3  38  ARG38       0.1354
     39  NH2       26.7850   25.4420   18.4320 N.pl3  38  ARG38       0.1354
     40  N         29.4630   18.5220   20.1840 N.am   39  GLY39      -0.1940
     41  CA        29.4220   18.1180   21.5680 C.3    39  GLY39       0.2014
     42  C         30.0460   19.1880   22.4300 C.2    39  GLY39       0.2639
     43  O         30.6540   20.1460   21.9170 O.2    39  GLY39      -0.2714
     44  N         29.8990   19.0240   23.7370 N.am   40  VAL40      -0.1963
     45  CA        30.3280   20.0540   24.6760 C.3    40  VAL40       0.1727
     46  C         31.8630   20.1590   24.7530 C.2    40  VAL40       0.2616
     47  O         32.3790   21.2700   24.8380 O.2    40  VAL40      -0.2715
     48  CB        29.6820   19.8680   26.0630 C.3    40  VAL40       0.0290
     49  CG1       30.0630   21.0040   26.9740 C.3    40  VAL40       0.0023
     50  CG2       28.1620   19.8150   25.9220 C.3    40  VAL40       0.0023
     51  N         32.5860   19.0340   24.6960 N.am   41  GLN41      -0.1977
     52  CA        34.0550   19.0600   24.4190 C.3    41  GLN41       0.1601
     53  C         34.2050   19.7310   23.0290 C.2    41  GLN41       0.2287
     54  O         33.2090   19.7820   22.3180 O.2    41  GLN41      -0.2864
     55  CB        34.6600   17.6430   24.5250 C.3    41  GLN41       0.0394
     56  CG        34.9450   16.8690   23.2230 C.3    41  GLN41       0.0908
     57  CD        33.7070   16.4920   22.4350 C.2    41  GLN41       0.2608
     58  OE1       33.3590   17.1570   21.4570 O.2    41  GLN41      -0.2717
     59  NE2       33.0500   15.4050   22.8380 N.am   41  GLN41      -0.0878
     60  N         31.5410   16.7650   14.1250 N.3    58  ILE58      -0.1245
     61  CA        32.1360   15.5040   13.7380 C.3    58  ILE58       0.1561
     62  C         31.0650   14.4690   13.3630 C.2    58  ILE58       0.2260
     63  O         29.9220   14.5660   13.8150 O.2    58  ILE58      -0.2867
     64  CB        33.0210   14.9770   14.8300 C.3    58  ILE58       0.0252
     65  CG1       32.2240   14.6370   16.0630 C.3    58  ILE58       0.0019
     66  CG2       34.1310   16.0100   15.1970 C.3    58  ILE58       0.0019
     67  CD1       33.0380   13.7620   16.9950 C.3    58  ILE58       0.0001
     68  N         28.5130   11.5380   13.1220 N.3    60  LYS60      -0.1245
     69  CA        27.8050   10.6650   14.0300 C.3    60  LYS60       0.1561
     70  C         26.7590    9.9040   13.2260 C.2    60  LYS60       0.2260
     71  O         26.5430   10.1560   12.0330 O.2    60  LYS60      -0.2867
     72  CB        27.1480   11.4730   15.1610 C.3    60  LYS60       0.0271
     73  CG        28.1180   12.3060   16.0540 C.3    60  LYS60       0.0035
     74  CD        28.9150   11.4200   16.9920 C.3    60  LYS60       0.0206
     75  CE        29.7680   12.2100   17.9610 C.3    60  LYS60       0.1093
     76  NZ        30.7140   11.3110   18.7060 N.3    60  LYS60      -0.1314
     77  N         34.2260    7.5450   27.0950 N.3    87  ASN87      -0.1226
     78  CA        34.8120    8.8210   26.7380 C.3    87  ASN87       0.1770
     79  C         33.7290    9.8030   26.2960 C.2    87  ASN87       0.2439
     80  O         32.6520    9.3790   25.8440 O.2    87  ASN87      -0.2733
     81  CB        35.8220    8.6240   25.6180 C.3    87  ASN87       0.1168
     82  CG        36.9470    7.6690   26.0020 C.2    87  ASN87       0.2627
     83  OD1       37.2620    6.7250   25.2750 O.2    87  ASN87      -0.2716
     84  ND2       37.5380    7.9020   27.1570 N.am   87  ASN87      -0.0877
     85  N         34.0040   11.1120   26.4120 N.am   88  PRO88      -0.2718
     86  CA        33.1190   12.1600   25.8810 C.3    88  PRO88       0.1535
     87  C         32.7250   11.9150   24.4350 C.2    88  PRO88       0.2599
     88  O         33.5780   11.5770   23.6310 O.2    88  PRO88      -0.2715
     89  CB        33.9960   13.4100   25.9520 C.3    88  PRO88       0.0310
     90  CG        34.9080   13.1390   27.0780 C.3    88  PRO88       0.0237
     91  CD        35.1950   11.6900   27.0630 C.3    88  PRO88       0.0939
     92  N         31.4410   12.0860   24.1160 N.am   89  GLY89      -0.1941
     93  CA        30.9570   11.9320   22.7530 C.3    89  GLY89       0.2014
     94  C         30.2750   10.6210   22.4630 C.2    89  GLY89       0.2639
     95  O         30.0040   10.2980   21.3010 O.2    89  GLY89      -0.2714
     96  N         29.9710    9.8440   23.5040 N.am   90  ASP90      -0.1957
     97  CA        29.2950    8.5750   23.3030 C.3    90  ASP90       0.1840
     98  C         27.8730    8.7630   22.8070 C.2    90  ASP90       0.2623
     99  O         27.2970    7.8450   22.2230 O.2    90  ASP90      -0.2715
    100  CB        29.2460    7.7810   24.5990 C.3    90  ASP90       0.1450
    101  CG        30.5490    7.0720   24.9080 C.2    90  ASP90       0.3671
    102  OD1       31.4310    7.0220   24.0380 O.co2  90  ASP90      -0.2456
    103  OD2       30.6420    6.5150   26.0270 O.co2  90  ASP90      -0.2456
    104  N         27.2920    9.9250   23.0730 N.am   91  GLY91      -0.1940
    105  CA        25.9670   10.2010   22.5210 C.3    91  GLY91       0.2014
    106  C         24.8080   10.4300   23.4780 C.2    91  GLY91       0.2638
    107  O         24.9370   10.3990   24.7080 O.2    91  GLY91      -0.2714
    108  N         23.6620   10.7090   22.8800 N.am   92  LYS92      -0.1977
    109  CA        22.4580   11.0360   23.6170 C.3    92  LYS92       0.1596
    110  C         21.3130   10.2560   22.9860 C.2    92  LYS92       0.2287
    111  O         21.3230    9.9710   21.7800 O.2    92  LYS92      -0.2864
    112  CB        22.1170   12.5180   23.5140 C.3    92  LYS92       0.0298
    113  CG        23.2310   13.4920   23.8140 C.3    92  LYS92       0.0038
    114  CD        23.3360   13.8170   25.2740 C.3    92  LYS92       0.0206
    115  CE        24.0930   15.1580   25.5090 C.3    92  LYS92       0.1093
    116  NZ        25.0550   15.0360   26.6610 N.3    92  LYS92      -0.1314
    117  N         17.0290   10.4920   22.7450 N.3    94  PHE94      -0.1241
    118  CA        15.8550   11.3150   22.9330 C.3    94  PHE94       0.1605
    119  C         14.6190   10.4510   22.6440 C.2    94  PHE94       0.2264
    120  O         14.5940    9.6940   21.6790 O.2    94  PHE94      -0.2867
    121  CB        15.8710   12.5100   21.9670 C.3    94  PHE94       0.0534
    122  CG        17.1340   13.2840   21.9770 C.ar   94  PHE94      -0.0203
    123  CD1       17.5080   13.9820   23.0910 C.ar   94  PHE94      -0.0042
    124  CD2       17.9700   13.3050   20.8730 C.ar   94  PHE94      -0.0042
    125  CE1       18.6870   14.7270   23.1080 C.ar   94  PHE94      -0.0003
    126  CE2       19.1370   14.0380   20.8990 C.ar   94  PHE94      -0.0003
    127  CZ        19.4920   14.7350   22.0030 C.ar   94  PHE94      -0.0000
@<TRIPOS>BOND
     1    24    23    1
     2    23    22    1
     3    22    21    1
     4    21    20    1
     5     9    10    1
     6    10    11    1
     7    10    13    1
     8    12    11    2
     9    11    16   am
    10    20    17    1
    11    14    13    1
    12    16    17    1
    13    13    15    1
    14    71    70    2
    15    17    18    1
    16    68    69    1
    17    70    69    1
    18    62    61    1
    19    62    63    2
    20    18    19    2
    21    18    25   am
    22    61    60    1
    23    61    64    1
    24    69    72    1
    25    25    26    1
    26    64    66    1
    27    64    65    1
    28    72    73    1
    29    26    27    1
    30    73    74    1
    31    65    67    1
    32    28    27    2
    33    27    29   am
    34     8     6    1
    35    74    75    1
    36    29    30    1
    37     7     5    1
    38    38    37    1
    39    33    30    1
    40    33    34    1
    41    35    36    1
    42    35    34    1
    43    75    76    1
    44     6     5    1
    45    30    31    1
    46    37    36    2
    47    37    39    1
    48     2     5    1
    49     2     3    1
    50     2     1    1
    51     3     4    2
    52    31    32    2
    53    31    40   am
    54    40    41    1
    55   124   126   ar
    56   124   122   ar
    57   126   127   ar
    58    95    94    2
    59    58    57    2
    60    41    42    1
    61   120   119    2
    62   111   110    2
    63    43    42    2
    64   121   122    1
    65   121   118    1
    66   122   123   ar
    67   127   125   ar
    68    99    98    2
    69    54    53    2
    70    42    44   am
    71    57    59   am
    72    57    56    1
    73    94    93    1
    74    94    96   am
    75   105   104    1
    76   105   106    1
    77   119   118    1
    78   117   118    1
    79    93    92    1
    80    98   104   am
    81    98    97    1
    82   108   106   am
    83   108   109    1
    84   110   109    1
    85    53    52    1
    86   123   125   ar
    87    56    55    1
    88    97    96    1
    89    97   100    1
    90   106   107    2
    91   112   109    1
    92   112   113    1
    93    88    87    2
    94    44    45    1
    95   113   114    1
    96   102   101   ar
    97    92    87   am
    98    52    55    1
    99    52    51    1
   100    87    86    1
   101   100   101    1
   102    45    46    1
   103    45    48    1
   104    51    46   am
   105    46    47    2
   106   101   103   ar
   107   114   115    1
   108    83    82    2
   109   115   116    1
   110    81    82    1
   111    81    78    1
   112    80    79    2
   113    86    89    1
   114    86    85    1
   115    50    48    1
   116    89    90    1
   117    82    84   am
   118    48    49    1
   119    79    85   am
   120    79    78    1
   121    85    91    1
   122    78    77    1
   123    91    90    1
