@<TRIPOS>MOLECULE
tmp/2j9eB01.pdb
 95 91 0 0 0
SMALL
GASTEIGER

@<TRIPOS>ATOM
      1  N         13.2540   -3.2520   13.5700 N.3    29  GLY29      -0.1210
      2  CA        12.8300   -2.0930   12.7790 C.3    29  GLY29       0.1956
      3  C         13.5720   -0.8470   13.2210 C.2    29  GLY29       0.2612
      4  O         13.5360   -0.4650   14.4030 O.2    29  GLY29      -0.2717
      5  N         14.2240   -0.1830   12.2720 N.am   30  MET30      -0.1965
      6  CA        15.0220    0.9940   12.5970 C.3    30  MET30       0.1736
      7  C         15.3270    1.7730   11.3230 C.2    30  MET30       0.2617
      8  O         15.3870    1.1870   10.2320 O.2    30  MET30      -0.2715
      9  CB        16.3480    0.5870   13.2560 C.3    30  MET30       0.0427
     10  CG        17.2200   -0.2840   12.4050 C.3    30  MET30       0.0599
     11  SD        18.8350   -0.6260   13.1580 S.3    30  MET30      -0.1393
     12  CE        18.8720    0.5640   14.4960 C.3    30  MET30       0.0692
     13  N         15.5540    3.0720   11.4880 N.am   31  THR31      -0.1951
     14  CA        15.9700    3.9500   10.4070 C.3    31  THR31       0.1897
     15  C         17.2540    4.6430   10.8300 C.2    31  THR31       0.2313
     16  O         17.3430    5.1880   11.9260 O.2    31  THR31      -0.2863
     17  CB        14.8500    4.9700   10.0380 C.3    31  THR31       0.1794
     18  OG1       13.6740    4.2740    9.5850 O.3    31  THR31      -0.2208
     19  CG2       15.3110    5.9500    8.9500 C.3    31  THR31       0.0378
     20  N         16.8600    5.6620   14.6580 N.3    64  GLU64      -0.1231
     21  CA        15.4980    5.9360   15.1150 C.3    64  GLU64       0.1699
     22  C         14.7740    4.5990   15.1530 C.2    64  GLU64       0.2592
     23  O         14.7600    3.8800   14.1500 O.2    64  GLU64      -0.2718
     24  CB        14.7470    6.8370   14.1230 C.3    64  GLU64       0.0402
     25  CG        15.2250    8.2430   13.9360 C.3    64  GLU64       0.1161
     26  CD        14.5100    8.8760   12.7240 C.2    64  GLU64       0.3649
     27  OE1       15.1000    8.9100   11.6250 O.co2  64  GLU64      -0.2457
     28  OE2       13.3160    9.2660   12.8440 O.co2  64  GLU64      -0.2457
     29  N         14.2120    4.2450   16.3000 N.am   65  LEU65      -0.1966
     30  CA        13.3950    3.0520   16.4380 C.3    65  LEU65       0.1728
     31  C         12.0480    3.4710   17.0050 C.2    65  LEU65       0.2616
     32  O         11.9990    4.0590   18.0870 O.2    65  LEU65      -0.2715
     33  CB        13.9980    2.0090   17.3910 C.3    65  LEU65       0.0311
     34  CG        15.3630    1.4140   17.0230 C.3    65  LEU65       0.0022
     35  CD1       16.4660    2.2340   17.6380 C.3    65  LEU65       0.0001
     36  CD2       15.4560   -0.0260   17.4520 C.3    65  LEU65       0.0001
     37  N         10.9680    3.1590   16.2910 N.am   66  VAL66      -0.1977
     38  CA         9.6240    3.4140   16.8190 C.3    66  VAL66       0.1596
     39  C          9.1400    2.1010   17.4260 C.2    66  VAL66       0.2287
     40  O          9.1580    1.0280   16.7700 O.2    66  VAL66      -0.2864
     41  CB         8.6900    3.9200   15.7420 C.3    66  VAL66       0.0276
     42  CG1        7.2310    4.0460   16.2790 C.3    66  VAL66       0.0022
     43  CG2        9.2450    5.2420   15.1850 C.3    66  VAL66       0.0022
     44  N          1.8530    1.2290    8.1470 N.3   103  ARG103     -0.1231
     45  CA         2.6240    0.3990    7.2400 C.3   103  ARG103      0.1694
     46  C          2.1290    0.6680    5.8250 C.2   103  ARG103      0.2592
     47  O          0.9570    0.4650    5.5120 O.2   103  ARG103     -0.2718
     48  CB         2.4250   -1.0790    7.6110 C.3   103  ARG103      0.0321
     49  CG         3.1970   -2.0410    6.7460 C.3   103  ARG103      0.0489
     50  CD         3.0200   -3.4690    7.2480 C.3   103  ARG103      0.2205
     51  NE         3.8860   -3.7450    8.3860 N.pl3 103  ARG103     -0.0865
     52  CZ         3.6870   -4.6870    9.2970 C.cat 103  ARG103      0.5346
     53  NH1        2.5880   -5.4230    9.2780 N.pl3 103  ARG103      0.1354
     54  NH2        4.5740   -4.8790   10.2470 N.pl3 103  ARG103      0.1354
     55  N          3.0310    1.1010    4.9510 N.am  104  VAL104     -0.1966
     56  CA         2.6250    1.5950    3.6230 C.3   104  VAL104      0.1727
     57  C          1.9860    0.5050    2.7650 C.2   104  VAL104      0.2616
     58  O          0.9940    0.7640    2.0710 O.2   104  VAL104     -0.2715
     59  CB         3.8210    2.2550    2.8910 C.3   104  VAL104      0.0290
     60  CG1        3.5590    2.4110    1.3970 C.3   104  VAL104      0.0023
     61  CG2        4.2010    3.5640    3.5790 C.3   104  VAL104      0.0023
     62  N          2.5460   -0.7030    2.7960 N.am  105  ARG105     -0.1977
     63  CA         2.0930   -1.7790    1.8950 C.3   105  ARG105      0.1597
     64  C          0.6340   -2.1500    2.1280 C.2   105  ARG105      0.2287
     65  O         -0.1030   -2.4120    1.1720 O.2   105  ARG105     -0.2864
     66  CB         2.9850   -3.0050    2.0690 C.3   105  ARG105      0.0334
     67  CG         2.6140   -4.1820    1.1700 C.3   105  ARG105      0.0492
     68  CD         3.6350   -5.2990    1.2320 C.3   105  ARG105      0.2205
     69  NE         3.8210   -5.7330    2.6050 N.pl3 105  ARG105     -0.0865
     70  CZ         3.0820   -6.6400    3.2330 C.cat 105  ARG105      0.5346
     71  NH1        2.1410   -7.3040    2.5840 N.pl3 105  ARG105      0.1354
     72  NH2        3.3130   -6.9260    4.5130 N.pl3 105  ARG105      0.1354
     73  N          1.3180   -2.4690   12.9060 N.3   113  ALA113     -0.1231
     74  CA         2.3480   -1.9710   11.9740 C.3   113  ALA113      0.1694
     75  C          3.7640   -2.1580   12.5130 C.2   113  ALA113      0.2591
     76  O          4.7180   -1.9210   11.7970 O.2   113  ALA113     -0.2718
     77  CB         2.0940   -0.5210   11.6280 C.3   113  ALA113      0.0304
     78  N          3.8910   -2.5860   13.7730 N.am  114  LEU114     -0.1980
     79  CA         5.1710   -2.8710   14.3860 C.3   114  LEU114      0.1596
     80  C          5.3830   -4.3470   14.6200 C.2   114  LEU114      0.2287
     81  O          6.4240   -4.7450   15.1680 O.2   114  LEU114     -0.2864
     82  CB         5.2960   -2.1540   15.7300 C.3   114  LEU114      0.0297
     83  CG         5.0290   -0.6560   15.7480 C.3   114  LEU114      0.0022
     84  CD1        5.2210   -0.1340   17.1500 C.3   114  LEU114      0.0001
     85  CD2        5.9540    0.0620   14.7570 C.3   114  LEU114      0.0001
     86  N          6.3340  -10.5900   11.1870 N.3   117  HIS117     -0.1241
     87  CA         5.6420  -11.5740   10.3310 C.3   117  HIS117      0.1621
     88  C          6.1260  -12.9970   10.6840 C.2   117  HIS117      0.2264
     89  O          7.0790  -13.1590   11.4230 O.2   117  HIS117     -0.2867
     90  CB         5.9170  -11.3430    8.8420 C.3   117  HIS117      0.0745
     91  CG         5.5590   -9.9760    8.3390 C.ar  117  HIS117      0.0817
     92  ND1        4.2670   -9.4920    8.3240 N.ar  117  HIS117     -0.2268
     93  CD2        6.3280   -9.0050    7.7870 C.ar  117  HIS117      0.1154
     94  CE1        4.2570   -8.2740    7.8030 C.ar  117  HIS117      0.1986
     95  NE2        5.4960   -7.9530    7.4740 N.ar  117  HIS117     -0.2212
@<TRIPOS>BOND
     1    67    68    1
     2    67    66    1
     3    65    64    2
     4    68    69    1
     5    60    59    1
     6    63    66    1
     7    63    64    1
     8    63    62    1
     9    58    57    2
    10    71    70    1
    11    69    70    2
    12    57    62   am
    13    57    56    1
    14    59    61    1
    15    59    56    1
    16    70    72    1
    17    56    55    1
    18    55    46   am
    19    47    46    2
    20    46    45    1
    21    49    50    1
    22    49    48    1
    23    45    48    1
    24    45    44    1
    25    50    51    1
    26    95    93   ar
    27    95    94   ar
    28    93    91   ar
    29    94    92   ar
    30    92    91   ar
    31    91    90    1
    32    51    52    2
    33    90    87    1
    34    19    17    1
    35    53    52    1
    36    52    54    1
    37    18    17    1
    38    17    14    1
    39     8     7    2
    40    87    88    1
    41    87    86    1
    42    14    15    1
    43    14    13    1
    44    88    89    2
    45    15    16    2
    46     7    13   am
    47     7     6    1
    48    27    26   ar
    49    77    74    1
    50    76    75    2
    51    74    75    1
    52    74    73    1
    53     5     6    1
    54     5     3   am
    55    10    11    1
    56    10     9    1
    57    75    78   am
    58     6     9    1
    59    26    28   ar
    60    26    25    1
    61     2     3    1
    62     2     1    1
    63    11    12    1
    64     3     4    2
    65    78    79    1
    66    25    24    1
    67    24    21    1
    68    23    22    2
    69    79    80    1
    70    79    82    1
    71    80    81    2
    72    20    21    1
    73    85    83    1
    74    21    22    1
    75    22    29   am
    76    43    41    1
    77    82    83    1
    78    41    42    1
    79    41    38    1
    80    83    84    1
    81    37    38    1
    82    37    31   am
    83    29    30    1
    84    30    31    1
    85    30    33    1
    86    40    39    2
    87    38    39    1
    88    31    32    2
    89    34    33    1
    90    34    36    1
    91    34    35    1
