@<TRIPOS>MOLECULE
tmp/2j9gA00.pdb
 194 184 0 0 0
SMALL
GASTEIGER

@<TRIPOS>ATOM
      1  N          2.0740  -26.7860   39.8740 N.3   116  LYS116     -0.1245
      2  CA         2.7970  -26.5460   38.6260 C.3   116  LYS116      0.1561
      3  C          3.8060  -27.6490   38.2880 C.2   116  LYS116      0.2260
      4  O          3.9210  -28.0480   37.1270 O.2   116  LYS116     -0.2867
      5  CB         3.4670  -25.1730   38.6610 C.3   116  LYS116      0.0271
      6  CG         2.4440  -24.0590   38.7200 C.3   116  LYS116      0.0035
      7  CD         3.0350  -22.7190   38.3980 C.3   116  LYS116      0.0206
      8  CE         1.9400  -21.7230   38.1360 C.3   116  LYS116      0.1093
      9  NZ         2.4900  -20.3640   38.0840 N.3   116  LYS116     -0.1314
     10  N          8.3440  -25.8080   28.8250 N.3   131  VAL131     -0.1245
     11  CA         9.5390  -24.9800   28.9620 C.3   131  VAL131      0.1561
     12  C         10.6660  -25.8660   29.5060 C.2   131  VAL131      0.2260
     13  O         10.4590  -26.5920   30.4740 O.2   131  VAL131     -0.2867
     14  CB         9.3290  -23.7990   29.9310 C.3   131  VAL131      0.0252
     15  CG1       10.5800  -22.9300   29.9850 C.3   131  VAL131      0.0019
     16  CG2        8.1010  -22.9660   29.5450 C.3   131  VAL131      0.0019
     17  N         14.2200  -18.8020   35.3670 N.3   157  ILE157     -0.1245
     18  CA        13.2610  -18.2310   36.2930 C.3   157  ILE157      0.1561
     19  C         12.9390  -19.2660   37.3690 C.2   157  ILE157      0.2260
     20  O         12.7180  -20.4440   37.0710 O.2   157  ILE157     -0.2867
     21  CB        11.9800  -17.7420   35.5670 C.3   157  ILE157      0.0252
     22  CG1       11.0220  -17.0610   36.5500 C.3   157  ILE157      0.0019
     23  CG2       11.2840  -18.8870   34.8380 C.3   157  ILE157      0.0019
     24  CD1        9.9520  -16.2280   35.8590 C.3   157  ILE157      0.0001
     25  N         10.3420  -20.5210   40.0480 N.3   159  LYS159     -0.1245
     26  CA         8.8900  -20.4360   40.1270 C.3   159  LYS159      0.1561
     27  C          8.3550  -21.2670   41.2860 C.2   159  LYS159      0.2260
     28  O          8.7850  -22.4010   41.5010 O.2   159  LYS159     -0.2867
     29  CB         8.2730  -20.8920   38.8070 C.3   159  LYS159      0.0271
     30  CG         8.6710  -20.0240   37.6100 C.3   159  LYS159      0.0035
     31  CD         8.0680  -20.5330   36.3050 C.3   159  LYS159      0.0206
     32  CE         6.5890  -20.1850   36.1870 C.3   159  LYS159      0.1093
     33  NZ         5.9860  -20.7070   34.9200 N.3   159  LYS159     -0.1314
     34  N          2.4590  -21.1900   43.2100 N.3   163  GLY163     -0.1210
     35  CA         2.4540  -19.7540   42.9140 C.3   163  GLY163      0.1956
     36  C          1.3110  -19.2900   42.0300 C.2   163  GLY163      0.2612
     37  O          0.6660  -20.0950   41.3570 O.2   163  GLY163     -0.2717
     38  N          1.0720  -17.9790   42.0240 N.am  164  GLY164     -0.1942
     39  CA        -0.0750  -17.4010   41.3150 C.3   164  GLY164      0.2014
     40  C         -0.0950  -15.8800   41.3260 C.2   164  GLY164      0.2639
     41  O          0.6120  -15.2490   42.1140 O.2   164  GLY164     -0.2714
     42  N         -0.9030  -15.3000   40.4370 N.am  165  GLY165     -0.1939
     43  CA        -1.1420  -13.8500   40.3960 C.3   165  GLY165      0.2014
     44  C          0.0640  -12.9760   40.0730 C.2   165  GLY165      0.2639
     45  O          0.0760  -11.7860   40.3980 O.2   165  GLY165     -0.2714
     46  N          1.0680  -13.5610   39.4250 N.am  166  GLY166     -0.1939
     47  CA         2.3180  -12.8680   39.1360 C.3   166  GLY166      0.2014
     48  C          3.2720  -12.8300   40.3170 C.2   166  GLY166      0.2638
     49  O          4.3110  -12.1660   40.2580 O.2   166  GLY166     -0.2714
     50  N          2.9250  -13.5430   41.3880 N.am  167  ARG167     -0.1977
     51  CA         3.7360  -13.5790   42.6000 C.3   167  ARG167      0.1597
     52  C          4.4080  -14.9410   42.7590 C.2   167  ARG167      0.2287
     53  O          3.9500  -15.9480   42.2100 O.2   167  ARG167     -0.2864
     54  CB         2.8770  -13.2600   43.8330 C.3   167  ARG167      0.0334
     55  CG         2.2710  -11.8500   43.8420 C.3   167  ARG167      0.0492
     56  CD         3.3430  -10.7670   43.9080 C.3   167  ARG167      0.2205
     57  NE         2.7850   -9.4160   43.8650 N.pl3 167  ARG167     -0.0865
     58  CZ         3.5100   -8.2990   43.7740 C.cat 167  ARG167      0.5346
     59  NH1        4.8410   -8.3540   43.7100 N.pl3 167  ARG167      0.1354
     60  NH2        2.9020   -7.1120   43.7450 N.pl3 167  ARG167      0.1354
     61  N          7.8810  -15.6900   42.0530 N.3   169  MET169     -0.1245
     62  CA         8.8830  -16.0320   41.0340 C.3   169  MET169      0.1570
     63  C          9.9530  -14.9520   40.8320 C.2   169  MET169      0.2261
     64  O          9.6630  -13.7560   40.8960 O.2   169  MET169     -0.2867
     65  CB         8.2160  -16.3720   39.6950 C.3   169  MET169      0.0387
     66  CG         7.4110  -15.2540   39.0810 C.3   169  MET169      0.0595
     67  SD         6.3870  -15.8440   37.7170 S.3   169  MET169     -0.1393
     68  CE         5.5470  -14.3190   37.2940 C.3   169  MET169      0.0692
     69  N         12.7200  -22.8940   35.5380 N.3   199  GLU199     -0.1231
     70  CA        12.3550  -22.8860   34.1130 C.3   199  GLU199      0.1699
     71  C         13.3010  -21.9700   33.3400 C.2   199  GLU199      0.2592
     72  O         13.8520  -21.0210   33.8980 O.2   199  GLU199     -0.2718
     73  CB        10.9110  -22.3810   33.9110 C.3   199  GLU199      0.0402
     74  CG         9.8950  -23.4760   33.6740 C.3   199  GLU199      0.1161
     75  CD         8.4930  -22.9670   33.3780 C.2   199  GLU199      0.3649
     76  OE1        7.6000  -23.8160   33.1830 O.co2 199  GLU199     -0.2457
     77  OE2        8.2680  -21.7380   33.3340 O.co2 199  GLU199     -0.2457
     78  N         13.4760  -22.2550   32.0520 N.am  200  LYS200     -0.1966
     79  CA        14.1840  -21.3360   31.1660 C.3   200  LYS200      0.1728
     80  C         13.3900  -20.0460   31.1020 C.2   200  LYS200      0.2616
     81  O         12.1770  -20.0880   30.9800 O.2   200  LYS200     -0.2715
     82  CB        14.3170  -21.9090   29.7580 C.3   200  LYS200      0.0311
     83  CG        15.3730  -21.1970   28.9450 C.3   200  LYS200      0.0038
     84  CD        15.5210  -21.7740   27.5490 C.3   200  LYS200      0.0206
     85  CE        16.9300  -21.5540   26.9940 C.3   200  LYS200      0.1093
     86  NZ        17.6380  -20.3670   27.5810 N.3   200  LYS200     -0.1314
     87  N         14.0610  -18.9020   31.1930 N.am  201  TYR201     -0.1960
     88  CA        13.3620  -17.6270   31.1040 C.3   201  TYR201      0.1771
     89  C         13.2740  -17.1720   29.6510 C.2   201  TYR201      0.2619
     90  O         14.2910  -16.8530   29.0280 O.2   201  TYR201     -0.2715
     91  CB        14.0310  -16.5640   31.9650 C.3   201  TYR201      0.0574
     92  CG        13.3200  -15.2330   31.9190 C.ar  201  TYR201     -0.0198
     93  CD1       12.0120  -15.1060   32.3740 C.ar  201  TYR201     -0.0009
     94  CD2       13.9540  -14.1010   31.4180 C.ar  201  TYR201     -0.0009
     95  CE1       11.3500  -13.8820   32.3280 C.ar  201  TYR201      0.0417
     96  CE2       13.3030  -12.8710   31.3700 C.ar  201  TYR201      0.0417
     97  CZ        12.0050  -12.7680   31.8260 C.ar  201  TYR201      0.1957
     98  OH        11.3630  -11.5530   31.7780 O.3   201  TYR201     -0.2866
     99  N         12.0490  -17.1520   29.1240 N.am  202  LEU202     -0.1977
    100  CA        11.7880  -16.7180   27.7570 C.3   202  LEU202      0.1596
    101  C         11.6550  -15.2010   27.7520 C.2   202  LEU202      0.2287
    102  O         10.8430  -14.6450   28.4860 O.2   202  LEU202     -0.2864
    103  CB        10.5070  -17.3640   27.2240 C.3   202  LEU202      0.0297
    104  CG        10.4400  -18.8960   27.2230 C.3   202  LEU202      0.0022
    105  CD1        9.1610  -19.3690   26.5340 C.3   202  LEU202      0.0001
    106  CD2       11.6520  -19.5000   26.5480 C.3   202  LEU202      0.0001
    107  N          8.2370  -13.6320   24.8160 N.3   205  PRO205     -0.2116
    108  CA         7.1550  -14.5100   24.4120 C.3   205  PRO205      0.1372
    109  C          5.8510  -13.7610   24.2100 C.2   205  PRO205      0.2244
    110  O          5.6840  -12.6540   24.7220 O.2   205  PRO205     -0.2868
    111  CB         7.0260  -15.4540   25.6070 C.3   205  PRO205      0.0268
    112  CG         7.3680  -14.5870   26.7740 C.3   205  PRO205      0.0207
    113  CD         8.4260  -13.6420   26.2810 C.3   205  PRO205      0.0892
    114  N          1.6350  -14.5640   24.7960 N.3   207  HIS207     -0.1241
    115  CA         0.7280  -15.4730   25.4870 C.3   207  HIS207      0.1621
    116  C         -0.2600  -16.0540   24.4880 C.2   207  HIS207      0.2264
    117  O         -1.1630  -15.3590   24.0200 O.2   207  HIS207     -0.2867
    118  CB        -0.0250  -14.7580   26.6100 C.3   207  HIS207      0.0745
    119  CG        -0.9420  -15.6550   27.3800 C.ar  207  HIS207      0.0817
    120  ND1       -0.7360  -15.9680   28.7040 N.ar  207  HIS207     -0.2268
    121  CD2       -2.0680  -16.3110   27.0090 C.ar  207  HIS207      0.1154
    122  CE1       -1.6960  -16.7730   29.1180 C.ar  207  HIS207      0.1986
    123  NE2       -2.5160  -17.0010   28.1080 N.ar  207  HIS207     -0.2212
    124  N         -1.0920   -7.2930   28.5390 N.3   231  GLN231     -0.1245
    125  CA        -1.2220   -7.5140   29.9870 C.3   231  GLN231      0.1566
    126  C         -0.6220   -6.3820   30.8110 C.2   231  GLN231      0.2260
    127  O          0.2700   -5.6640   30.3530 O.2   231  GLN231     -0.2867
    128  CB        -0.5390   -8.8250   30.3990 C.3   231  GLN231      0.0367
    129  CG        -1.0060  -10.0500   29.6330 C.3   231  GLN231      0.0905
    130  CD        -0.3780  -11.3510   30.1200 C.2   231  GLN231      0.2608
    131  OE1        0.3040  -11.3840   31.1430 O.2   231  GLN231     -0.2717
    132  NE2       -0.6110  -12.4300   29.3830 N.am  231  GLN231     -0.0878
    133  N          0.6550   -8.7910   34.9300 N.3   234  HIS234     -0.1241
    134  CA         0.3220  -10.1640   34.5500 C.3   234  HIS234      0.1621
    135  C         -1.1850  -10.4150   34.4380 C.2   234  HIS234      0.2264
    136  O         -1.6140  -11.5540   34.2890 O.2   234  HIS234     -0.2867
    137  CB         0.9880  -11.1580   35.5090 C.3   234  HIS234      0.0745
    138  CG         2.4310  -10.8580   35.7660 C.ar  234  HIS234      0.0817
    139  ND1        3.4060  -11.0330   34.8080 N.ar  234  HIS234     -0.2268
    140  CD2        3.0620  -10.3680   36.8590 C.ar  234  HIS234      0.1154
    141  CE1        4.5780  -10.6800   35.3050 C.ar  234  HIS234      0.1986
    142  NE2        4.3960  -10.2690   36.5470 N.ar  234  HIS234     -0.2212
    143  N         -2.4000  -22.8190   28.6090 N.3   274  GLU274     -0.1245
    144  CA        -1.6920  -21.5640   28.3820 C.3   274  GLU274      0.1567
    145  C         -0.2420  -21.8330   28.0140 C.2   274  GLU274      0.2260
    146  O          0.4600  -22.5710   28.7210 O.2   274  GLU274     -0.2867
    147  CB        -1.7580  -20.6830   29.6310 C.3   274  GLU274      0.0388
    148  CG        -3.1580  -20.2880   30.0200 C.3   274  GLU274      0.1160
    149  CD        -3.1780  -19.2930   31.1610 C.2   274  GLU274      0.3649
    150  OE1       -2.2730  -19.3500   32.0130 O.co2 274  GLU274     -0.2457
    151  OE2       -4.0900  -18.4480   31.1960 O.co2 274  GLU274     -0.2457
    152  N          3.5320  -19.9630   26.5190 N.3   276  LEU276     -0.1245
    153  CA         4.3370  -18.8610   26.0340 C.3   276  LEU276      0.1561
    154  C          4.7800  -19.2770   24.6360 C.2   276  LEU276      0.2260
    155  O          5.2450  -20.3960   24.4500 O.2   276  LEU276     -0.2867
    156  CB         5.5300  -18.6010   26.9540 C.3   276  LEU276      0.0270
    157  CG         5.1660  -18.0850   28.3530 C.3   276  LEU276      0.0019
    158  CD1        6.4350  -17.8800   29.1870 C.3   276  LEU276      0.0001
    159  CD2        4.3500  -16.8010   28.2880 C.3   276  LEU276      0.0001
    160  N          2.9860  -23.4910   30.1700 N.3   285  ILE285     -0.1231
    161  CA         3.2240  -22.9510   31.5090 C.3   285  ILE285      0.1692
    162  C          2.1080  -23.2720   32.5110 C.2   285  ILE285      0.2591
    163  O          2.3980  -23.4650   33.6930 O.2   285  ILE285     -0.2718
    164  CB         3.5180  -21.4270   31.4880 C.3   285  ILE285      0.0266
    165  CG1        2.3910  -20.6430   30.8110 C.3   285  ILE285      0.0019
    166  CG2        4.8650  -21.1600   30.7860 C.3   285  ILE285      0.0020
    167  CD1        2.5320  -19.1360   30.9420 C.3   285  ILE285      0.0001
    168  N          0.8530  -23.3370   32.0530 N.am  286  GLU286     -0.1979
    169  CA        -0.2700  -23.6330   32.9460 C.3   286  GLU286      0.1602
    170  C         -1.5280  -24.1220   32.2180 C.2   286  GLU286      0.2287
    171  O         -1.8050  -23.7220   31.0850 O.2   286  GLU286     -0.2864
    172  CB        -0.6110  -22.3920   33.7820 C.3   286  GLU286      0.0415
    173  CG        -1.6120  -22.6550   34.9050 C.3   286  GLU286      0.1163
    174  CD        -1.6630  -21.5500   35.9500 C.2   286  GLU286      0.3649
    175  OE1       -1.0470  -20.4780   35.7600 O.co2 286  GLU286     -0.2457
    176  OE2       -2.3400  -21.7600   36.9810 O.co2 286  GLU286     -0.2457
    177  N          4.2790  -10.0830   25.5520 N.3   435  ILE435     -0.1231
    178  CA         3.6620   -9.9010   26.8710 C.3   435  ILE435      0.1692
    179  C          4.1840   -8.6980   27.6690 C.2   435  ILE435      0.2592
    180  O          3.6440   -8.3900   28.7290 O.2   435  ILE435     -0.2718
    181  CB         3.8030  -11.1650   27.7570 C.3   435  ILE435      0.0266
    182  CG1        5.2840  -11.4810   28.0310 C.3   435  ILE435      0.0019
    183  CG2        3.1100  -12.3520   27.1080 C.3   435  ILE435      0.0020
    184  CD1        5.4930  -12.4740   29.1500 C.3   435  ILE435      0.0001
    185  N          5.2310   -8.0380   27.1730 N.am  436  HIS436     -0.1976
    186  CA         5.7890   -6.8590   27.8360 C.3   436  HIS436      0.1656
    187  C          5.3180   -5.5510   27.2140 C.2   436  HIS436      0.2291
    188  O          5.6230   -4.4860   27.7530 O.2   436  HIS436     -0.2864
    189  CB         7.3230   -6.8860   27.7900 C.3   436  HIS436      0.0771
    190  CG         7.9210   -8.1770   28.2500 C.ar  436  HIS436      0.0820
    191  ND1        7.8370   -8.6140   29.5560 N.ar  436  HIS436     -0.2267
    192  CD2        8.6100   -9.1280   27.5780 C.ar  436  HIS436      0.1154
    193  CE1        8.4470   -9.7800   29.6660 C.ar  436  HIS436      0.1986
    194  NE2        8.9260  -10.1140   28.4810 N.ar  436  HIS436     -0.2212
@<TRIPOS>BOND
     1   117   116    2
     2   109   108    1
     3   109   110    2
     4   108   107    1
     5   108   111    1
     6   155   154    2
     7   116   115    1
     8   154   153    1
     9   114   115    1
    10   107   113    1
    11   115   118    1
    12   177   178    1
    13   111   112    1
    14   153   152    1
    15   153   156    1
    16   113   112    1
    17   105   104    1
    18   106   104    1
    19   118   119    1
    20   178   179    1
    21   178   181    1
    22   156   157    1
    23    85    84    1
    24    85    86    1
    25   121   119   ar
    26   121   123   ar
    27   183   181    1
    28   185   179   am
    29   185   186    1
    30   187   188    2
    31   187   186    1
    32   104   103    1
    33   103   100    1
    34   119   120   ar
    35    84    83    1
    36   192   190   ar
    37   192   194   ar
    38   179   180    2
    39   101   100    1
    40   101   102    2
    41   181   182    1
    42   100    99    1
    43   189   186    1
    44   189   190    1
    45   145   144    1
    46   145   146    2
    47   182   184    1
    48   123   122   ar
    49   190   191   ar
    50   159   157    1
    51   157   158    1
    52   144   143    1
    53   144   147    1
    54   194   193   ar
    55   124   125    1
    56   120   122   ar
    57    10    11    1
    58    83    82    1
    59    11    12    1
    60    11    14    1
    61    90    89    2
    62    99    89   am
    63   132   130   am
    64    12    13    2
    65    16    14    1
    66   191   193   ar
    67   147   148    1
    68   129   130    1
    69   129   128    1
    70    89    88    1
    71    82    79    1
    72    14    15    1
    73   125   128    1
    74   125   126    1
    75   148   149    1
    76   130   131    2
    77   160   161    1
    78   127   126    2
    79   166   164    1
    80   165   167    1
    81   165   164    1
    82    81    80    2
    83   171   170    2
    84    80    79    1
    85    80    87   am
    86    88    87    1
    87    88    91    1
    88   149   151   ar
    89   149   150   ar
    90    79    78    1
    91    96    94   ar
    92    96    97   ar
    93    94    92   ar
    94   164   161    1
    95   161   162    1
    96    98    97    1
    97    97    95   ar
    98    92    91    1
    99    92    93   ar
   100    78    71   am
   101   168   162   am
   102   168   169    1
   103   170   169    1
   104    95    93   ar
   105   162   163    2
   106   169   172    1
   107    76    75   ar
   108    77    75   ar
   109    71    72    2
   110    71    70    1
   111    75    74    1
   112    74    73    1
   113   172   173    1
   114    73    70    1
   115    70    69    1
   116   136   135    2
   117   135   134    1
   118   134   133    1
   119   134   137    1
   120   139   141   ar
   121   139   138   ar
   122    23    21    1
   123   173   174    1
   124    33    32    1
   125   141   142   ar
   126    17    18    1
   127   137   138    1
   128    21    18    1
   129    21    22    1
   130   175   174   ar
   131   138   140   ar
   132    24    22    1
   133   174   176   ar
   134    32    31    1
   135    18    19    1
   136    31    30    1
   137   142   140   ar
   138    20    19    2
   139     4     3    2
   140    68    67    1
   141    30    29    1
   142    67    66    1
   143     9     8    1
   144     8     7    1
   145     3     2    1
   146     7     6    1
   147     2     5    1
   148     2     1    1
   149     5     6    1
   150    29    26    1
   151    66    65    1
   152    47    46    1
   153    47    48    1
   154    46    44   am
   155    65    62    1
   156    25    26    1
   157    44    43    1
   158    44    45    2
   159    26    27    1
   160    49    48    2
   161    48    50   am
   162    43    42    1
   163    42    40   am
   164    63    64    2
   165    63    62    1
   166    62    61    1
   167    27    28    2
   168    39    40    1
   169    39    38    1
   170    40    41    2
   171    37    36    2
   172    50    51    1
   173    38    36   am
   174    36    35    1
   175    53    52    2
   176    51    52    1
   177    51    54    1
   178    35    34    1
   179    59    58    1
   180    60    58    1
   181    58    57    2
   182    54    55    1
   183    55    56    1
   184    57    56    1
