@<TRIPOS>MOLECULE
tmp/2j9jA00.pdb
 132 124 0 0 0
SMALL
GASTEIGER

@<TRIPOS>ATOM
      1  N         21.5620   -5.4090  -27.1200 N.3     8  ARG8       -0.1245
      2  CA        22.2450   -4.6400  -26.0880 C.3     8  ARG8        0.1563
      3  C         23.3500   -3.7750  -26.6860 C.2     8  ARG8        0.2260
      4  O         24.1100   -4.2570  -27.5400 O.2     8  ARG8       -0.2867
      5  CB        22.8680   -5.6070  -25.0690 C.3     8  ARG8        0.0307
      6  CG        21.8450   -6.3230  -24.2100 C.3     8  ARG8        0.0489
      7  CD        22.4770   -7.1900  -23.1830 C.3     8  ARG8        0.2205
      8  NE        21.5100   -7.9940  -22.4480 N.pl3   8  ARG8       -0.0865
      9  CZ        21.7640   -9.1110  -21.7730 C.cat   8  ARG8        0.5346
     10  NH1       22.9950   -9.5840  -21.7350 N.pl3   8  ARG8        0.1354
     11  NH2       20.7830   -9.7350  -21.1600 N.pl3   8  ARG8        0.1354
     12  N         28.4310   -2.2130  -21.6380 N.3    23  LEU23      -0.1245
     13  CA        27.1210   -1.7500  -22.0600 C.3    23  LEU23       0.1561
     14  C         26.9550   -0.2570  -21.8520 C.2    23  LEU23       0.2260
     15  O         27.1620    0.2350  -20.7510 O.2    23  LEU23      -0.2867
     16  CB        26.1360   -2.5390  -21.1850 C.3    23  LEU23       0.0270
     17  CG        24.6550   -2.3750  -21.3500 C.3    23  LEU23       0.0019
     18  CD1       24.2710   -2.9010  -22.7180 C.3    23  LEU23       0.0001
     19  CD2       23.8790   -3.2130  -20.2920 C.3    23  LEU23       0.0001
     20  N         24.8670    2.5590  -20.8700 N.3    25  ASP25      -0.1239
     21  CA        23.7160    2.3900  -20.0000 C.3    25  ASP25       0.1674
     22  C         23.1930    3.7050  -19.4690 C.2    25  ASP25       0.2266
     23  O         23.6610    4.2430  -18.4540 O.2    25  ASP25      -0.2867
     24  CB        24.1440    1.4620  -18.8710 C.3    25  ASP25       0.1410
     25  CG        23.0300    1.1140  -17.9940 C.2    25  ASP25       0.3668
     26  OD1       21.8940    1.5100  -18.1780 O.co2  25  ASP25      -0.2456
     27  OD2       23.1930    0.4630  -16.9220 O.co2  25  ASP25      -0.2456
     28  N         20.4880    4.2250  -17.9480 N.3    27  GLY27      -0.1210
     29  CA        19.8700    3.9990  -16.6640 C.3    27  GLY27       0.1956
     30  C         20.8300    3.8180  -15.5100 C.2    27  GLY27       0.2612
     31  O         20.3580    3.5230  -14.3930 O.2    27  GLY27      -0.2717
     32  N         22.1050    4.0160  -15.7240 N.am   28  ALA28      -0.1965
     33  CA        23.1220    3.9160  -14.6740 C.3    28  ALA28       0.1728
     34  C         23.6900    5.2700  -14.3280 C.2    28  ALA28       0.2616
     35  O         24.2060    5.9790  -15.2000 O.2    28  ALA28      -0.2715
     36  CB        24.2010    2.9560  -15.0950 C.3    28  ALA28       0.0334
     37  N         23.6820    5.6200  -13.0480 N.am   29  ASP29      -0.1957
     38  CA        24.3660    6.8220  -12.6020 C.3    29  ASP29       0.1840
     39  C         25.8680    6.7050  -12.7910 C.2    29  ASP29       0.2622
     40  O         26.5390    7.6860  -13.0880 O.2    29  ASP29      -0.2715
     41  CB        24.0230    7.1210  -11.1540 C.3    29  ASP29       0.1450
     42  CG        22.6020    7.4040  -10.7940 C.2    29  ASP29       0.3671
     43  OD1       21.7710    7.7050  -11.7100 O.co2  29  ASP29      -0.2456
     44  OD2       22.3160    7.3590   -9.5630 O.co2  29  ASP29      -0.2456
     45  N         26.3820    5.5180  -12.5140 N.am   30  ASP30      -0.1971
     46  CA        27.7650    5.2170  -12.3870 C.3    30  ASP30       0.1709
     47  C         28.1970    4.1510  -13.3650 C.2    30  ASP30       0.2293
     48  O         27.4080    3.4780  -13.9900 O.2    30  ASP30      -0.2864
     49  CB        28.0330    4.7540  -10.9470 C.3    30  ASP30       0.1436
     50  CG        28.1830    5.9940  -10.1090 C.2    30  ASP30       0.3671
     51  OD1       29.0990    6.8250  -10.3610 O.co2  30  ASP30      -0.2456
     52  OD2       27.4730    6.3100   -9.2990 O.co2  30  ASP30      -0.2456
     53  N         30.3200    0.6790  -13.7720 N.3    32  VAL32      -0.1245
     54  CA        30.5560   -0.4660  -12.9170 C.3    32  VAL32       0.1561
     55  C         31.1400   -1.5570  -13.7780 C.2    32  VAL32       0.2260
     56  O         30.5180   -2.0050  -14.7700 O.2    32  VAL32      -0.2867
     57  CB        29.2270   -0.9790  -12.2580 C.3    32  VAL32       0.0252
     58  CG1       29.6060   -2.0180  -11.1880 C.3    32  VAL32       0.0019
     59  CG2       28.4110    0.1610  -11.7160 C.3    32  VAL32       0.0019
     60  N         32.3780    1.4810   -1.4470 N.3    43  LYS43      -0.1241
     61  CA        31.1370    2.1650   -1.7600 C.3    43  LYS43       0.1604
     62  C         30.0650    1.1160   -1.8870 C.2    43  LYS43       0.2264
     63  O         30.3520   -0.0550   -2.1880 O.2    43  LYS43      -0.2867
     64  CB        31.2690    2.9580   -3.0700 C.3    43  LYS43       0.0527
     65  CG        30.0920    3.7920   -3.5060 C.2    43  LYS43      -0.0273
     66  CD        30.1860    4.4890   -4.8350 C.2    43  LYS43      -0.0103
     67  CE        29.0910    5.4590   -5.1470 C.3    43  LYS43       0.1350
     68  NZ        29.2150    6.7270   -4.4620 N.3    43  LYS43      -0.1262
     69  N         26.3300    0.5320   -4.0350 N.3    44  ILE44      -0.1231
     70  CA        25.4290    1.0150   -5.0900 C.3    44  ILE44       0.1692
     71  C         24.2610    0.0650   -5.2200 C.2    44  ILE44       0.2593
     72  O         24.3520   -1.1030   -4.8530 O.2    44  ILE44      -0.2718
     73  CB        26.1620    1.1490   -6.4220 C.3    44  ILE44       0.0266
     74  CG1       26.6330   -0.1950   -6.9740 C.3    44  ILE44       0.0019
     75  CG2       27.2850    2.1910   -6.2500 C.3    44  ILE44       0.0020
     76  CD1       27.2390   -0.2530   -8.3220 C.3    44  ILE44       0.0001
     77  N         23.1820    0.5350   -5.7980 N.am   45  GLY45      -0.1942
     78  CA        22.0070   -0.2410   -5.9330 C.3    45  GLY45       0.2014
     79  C         21.4850   -0.3170   -7.3140 C.2    45  GLY45       0.2639
     80  O         21.8290    0.4430   -8.1740 O.2    45  GLY45      -0.2714
     81  N         20.5970   -1.2900   -7.4340 N.am   46  GLY46      -0.1939
     82  CA        19.7150   -1.3480   -8.5620 C.3    46  GLY46       0.2014
     83  C         18.6310   -2.3560   -8.4220 C.2    46  GLY46       0.2638
     84  O         18.1680   -2.4590   -7.3290 O.2    46  GLY46      -0.2714
     85  N         18.3770   -2.9750   -9.6130 N.am   47  ILE47      -0.1977
     86  CA        17.1000   -3.6240   -9.7010 C.3    47  ILE47       0.1596
     87  C         16.9390   -4.6730   -8.6350 C.2    47  ILE47       0.2287
     88  O         15.8490   -4.7960   -8.0450 O.2    47  ILE47      -0.2864
     89  CB        16.7070   -4.1830  -11.0800 C.3    47  ILE47       0.0276
     90  CG1       15.1760   -4.2530  -11.2420 C.3    47  ILE47       0.0022
     91  CG2       17.3070   -5.4970  -11.4530 C.3    47  ILE47       0.0022
     92  CD1       14.3300   -3.0420  -10.8920 C.3    47  ILE47       0.0001
     93  N         21.3300   -3.8510   -3.2850 N.3    50  PHE50      -0.1241
     94  CA        22.6110   -3.1940   -3.1850 C.3    50  PHE50       0.1605
     95  C         23.7690   -4.1730   -3.2230 C.2    50  PHE50       0.2264
     96  O         23.6420   -5.2660   -2.6970 O.2    50  PHE50      -0.2867
     97  CB        22.7030   -2.3200   -1.9320 C.3    50  PHE50       0.0534
     98  CG        21.9110   -1.0410   -2.0790 C.ar   50  PHE50      -0.0203
     99  CD1       20.5500   -0.9420   -1.9940 C.ar   50  PHE50      -0.0042
    100  CD2       22.6480    0.1080   -2.3420 C.ar   50  PHE50      -0.0042
    101  CE1       19.9130    0.3110   -2.1910 C.ar   50  PHE50      -0.0003
    102  CE2       22.0350    1.3240   -2.5710 C.ar   50  PHE50      -0.0003
    103  CZ        20.6720    1.4250   -2.5390 C.ar   50  PHE50      -0.0000
    104  N         29.1670   -6.8570  -10.6390 N.3    76  THR76      -0.1204
    105  CA        28.0780   -6.5480  -11.5920 C.3    76  THR76       0.1979
    106  C         27.8120   -7.6730  -12.5720 C.2    76  THR76       0.2460
    107  O         28.7210   -8.3620  -13.0480 O.2    76  THR76      -0.2732
    108  CB        28.4440   -5.2510  -12.2900 C.3    76  THR76       0.1783
    109  OG1       27.3260   -5.0020  -13.2090 O.3    76  THR76      -0.2211
    110  CG2       29.7540   -5.2930  -13.0680 C.3    76  THR76       0.0376
    111  N         26.5970   -7.9510  -13.0150 N.am   77  PRO77      -0.2717
    112  CA        26.3490   -8.9590  -14.0230 C.3    77  PRO77       0.1535
    113  C         26.9180   -8.6450  -15.3920 C.2    77  PRO77       0.2598
    114  O         27.1890   -9.5550  -16.1380 O.2    77  PRO77      -0.2715
    115  CB        24.8350   -9.1050  -14.2090 C.3    77  PRO77       0.0310
    116  CG        24.3280   -8.3430  -13.0650 C.3    77  PRO77       0.0237
    117  CD        25.3130   -7.3990  -12.5060 C.3    77  PRO77       0.0939
    118  N         27.0700   -7.4000  -15.7350 N.am   78  VAL78      -0.1978
    119  CA        27.6290   -6.9900  -17.0080 C.3    78  VAL78       0.1596
    120  C         28.3130   -5.6570  -16.7700 C.2    78  VAL78       0.2287
    121  O         27.9200   -4.8490  -15.9610 O.2    78  VAL78      -0.2864
    122  CB        26.6160   -6.8690  -18.1410 C.3    78  VAL78       0.0276
    123  CG1       25.5470   -5.9050  -17.7640 C.3    78  VAL78       0.0022
    124  CG2       27.1130   -6.3460  -19.4790 C.3    78  VAL78       0.0022
    125  N         29.1610   -1.9630  -17.2510 N.3    80  ILE80      -0.1245
    126  CA        28.2740   -0.9040  -17.7170 C.3    80  ILE80       0.1561
    127  C         29.0230    0.4320  -17.6220 C.2    80  ILE80       0.2260
    128  O         29.7240    0.7570  -16.6660 O.2    80  ILE80      -0.2867
    129  CB        26.9260   -0.8050  -16.9630 C.3    80  ILE80       0.0252
    130  CG1       27.1730   -0.5730  -15.4810 C.3    80  ILE80       0.0019
    131  CG2       25.9970   -2.0040  -17.2000 C.3    80  ILE80       0.0019
    132  CD1       25.9550   -0.4180  -14.6280 C.3    80  ILE80       0.0001
@<TRIPOS>BOND
     1     4     3    2
     2     1     2    1
     3     3     2    1
     4     2     5    1
     5     5     6    1
     6     6     7    1
     7     7     8    1
     8    18    17    1
     9     8     9    2
    10    13    14    1
    11    13    12    1
    12    13    16    1
    13    14    15    2
    14     9    10    1
    15     9    11    1
    16    17    16    1
    17    17    19    1
    18    20    21    1
    19    21    22    1
    20    21    24    1
    21   124   122    1
    22    22    23    2
    23    24    25    1
    24    26    25   ar
    25   122   123    1
    26   122   119    1
    27    25    27   ar
    28    28    29    1
    29   126   127    1
    30   126   125    1
    31   126   129    1
    32   127   128    2
    33   131   129    1
    34   119   120    1
    35   119   118    1
    36   129   130    1
    37   120   121    2
    38    29    30    1
    39   114   113    2
    40   118   113   am
    41    32    30   am
    42    32    33    1
    43    30    31    2
    44   130   132    1
    45   113   112    1
    46    35    34    2
    47    36    33    1
    48    56    55    2
    49    33    34    1
    50    34    37   am
    51   115   112    1
    52   115   116    1
    53   112   111    1
    54    48    47    2
    55    55    54    1
    56    53    54    1
    57    47    46    1
    58   109   108    1
    59    40    39    2
    60   110   108    1
    61   116   117    1
    62    37    38    1
    63   107   106    2
    64   111   106   am
    65   111   117    1
    66    54    57    1
    67    39    38    1
    68    39    45   am
    69    38    41    1
    70   106   105    1
    71    45    46    1
    72    46    49    1
    73   108   105    1
    74    57    59    1
    75    57    58    1
    76    43    42   ar
    77   105   104    1
    78    91    89    1
    79    90    89    1
    80    90    92    1
    81    41    42    1
    82    89    86    1
    83    49    50    1
    84    42    44   ar
    85    51    50   ar
    86    50    52   ar
    87    86    85    1
    88    86    87    1
    89    85    83   am
    90    87    88    2
    91    82    83    1
    92    82    81    1
    93    83    84    2
    94    76    74    1
    95    80    79    2
    96    81    79   am
    97    79    78    1
    98    74    73    1
    99    73    75    1
   100    73    70    1
   101    78    77    1
   102    77    71   am
   103    71    70    1
   104    71    72    2
   105    67    66    1
   106    67    68    1
   107    70    69    1
   108    66    65    2
   109    65    64    1
   110    93    94    1
   111    95    94    1
   112    95    96    2
   113    94    97    1
   114    64    61    1
   115   102   103   ar
   116   102   100   ar
   117   103   101   ar
   118   100    98   ar
   119   101    99   ar
   120    63    62    2
   121    98    99   ar
   122    98    97    1
   123    62    61    1
   124    61    60    1
