@<TRIPOS>MOLECULE
tmp/2j9lB00.pdb
 134 132 0 0 0
SMALL
GASTEIGER

@<TRIPOS>ATOM
      1  N         33.9970   55.1490   32.8120 N.3    10  LYS10      -0.1231
      2  CA        34.0210   54.4950   31.5200 C.3    10  LYS10       0.1678
      3  C         32.6660   54.7490   30.8810 C.2    10  LYS10       0.2434
      4  O         31.6720   54.8900   31.5890 O.2    10  LYS10      -0.2733
      5  CB        34.2580   52.9950   31.6800 C.3    10  LYS10       0.0284
      6  CG        35.4350   52.6410   32.5720 C.3    10  LYS10       0.0035
      7  CD        36.7570   53.0160   31.9310 C.3    10  LYS10       0.0206
      8  CE        37.9350   52.5220   32.7590 C.3    10  LYS10       0.1093
      9  NZ        38.0540   51.0350   32.7140 N.3    10  LYS10      -0.1314
     10  N         32.6140   54.8200   29.5420 N.am   11  PRO11      -0.2729
     11  CA        33.7320   54.6350   28.6210 C.3    11  PRO11       0.1401
     12  C         34.7140   55.7820   28.7050 C.2    11  PRO11       0.2269
     13  O         34.3280   56.8980   29.0480 O.2    11  PRO11      -0.2865
     14  CB        33.0610   54.6440   27.2410 C.3    11  PRO11       0.0296
     15  CG        31.5900   54.4840   27.5030 C.3    11  PRO11       0.0237
     16  CD        31.3620   55.1160   28.8280 C.3    11  PRO11       0.0939
     17  N         33.8200   52.5670   22.8440 N.3    16  PRO16      -0.2102
     18  CA        32.4220   52.2670   22.5420 C.3    16  PRO16       0.1504
     19  C         31.4950   52.6780   23.6860 C.2    16  PRO16       0.2576
     20  O         31.9260   52.7660   24.8330 O.2    16  PRO16      -0.2718
     21  CB        32.4160   50.7470   22.3400 C.3    16  PRO16       0.0282
     22  CG        33.6770   50.2570   22.9780 C.3    16  PRO16       0.0208
     23  CD        34.6670   51.3640   22.8330 C.3    16  PRO16       0.0893
     24  N         30.2310   52.9310   23.3650 N.am   17  LEU17      -0.1966
     25  CA        29.2840   53.4610   24.3380 C.3    17  LEU17       0.1728
     26  C         28.9940   52.4890   25.4700 C.2    17  LEU17       0.2616
     27  O         29.1510   51.2780   25.3230 O.2    17  LEU17      -0.2715
     28  CB        27.9740   53.8620   23.6540 C.3    17  LEU17       0.0311
     29  CG        28.0320   55.0090   22.6400 C.3    17  LEU17       0.0022
     30  CD1       26.6520   55.2580   22.0450 C.3    17  LEU17       0.0001
     31  CD2       28.5860   56.2830   23.2660 C.3    17  LEU17       0.0001
     32  N         28.5710   53.0360   26.6040 N.am   18  LEU18      -0.1963
     33  CA        28.1450   52.2300   27.7380 C.3    18  LEU18       0.1728
     34  C         27.3140   51.0470   27.2710 C.2    18  LEU18       0.2616
     35  O         26.4440   51.2000   26.4220 O.2    18  LEU18      -0.2715
     36  CB        27.3060   53.0770   28.6930 C.3    18  LEU18       0.0311
     37  CG        27.9280   53.5390   30.0030 C.3    18  LEU18       0.0022
     38  CD1       26.8250   54.0460   30.9030 C.3    18  LEU18       0.0001
     39  CD2       28.6650   52.4050   30.6780 C.3    18  LEU18       0.0001
     40  N         27.5780   49.8690   27.8240 N.am   19  THR19      -0.1951
     41  CA        26.7570   48.7000   27.5160 C.3    19  THR19       0.1897
     42  C         25.5360   48.6860   28.4290 C.2    19  THR19       0.2313
     43  O         25.6370   48.4580   29.6310 O.2    19  THR19      -0.2863
     44  CB        27.5330   47.3960   27.6470 C.3    19  THR19       0.1794
     45  OG1       28.6420   47.4180   26.7440 O.3    19  THR19      -0.2208
     46  CG2       26.6350   46.2180   27.3030 C.3    19  THR19       0.0378
     47  N         31.8920   40.9830   29.9520 N.3    39  THR39      -0.1203
     48  CA        32.1240   40.4570   31.2890 C.3    39  THR39       0.1994
     49  C         31.7660   41.4460   32.3810 C.2    39  THR39       0.2618
     50  O         32.1370   41.2330   33.5370 O.2    39  THR39      -0.2717
     51  CB        33.5910   40.0400   31.5000 C.3    39  THR39       0.1784
     52  OG1       34.4370   41.1880   31.3780 O.3    39  THR39      -0.2211
     53  CG2       34.0120   38.9740   30.4780 C.3    39  THR39       0.0376
     54  N         31.0490   42.5180   32.0300 N.am   40  TYR40      -0.1961
     55  CA        30.6610   43.5320   33.0140 C.3    40  TYR40       0.1771
     56  C         29.7970   42.9330   34.0980 C.2    40  TYR40       0.2620
     57  O         28.9650   42.0770   33.8340 O.2    40  TYR40      -0.2715
     58  CB        29.9230   44.7190   32.3660 C.3    40  TYR40       0.0574
     59  CG        30.6980   45.3930   31.2660 C.ar   40  TYR40      -0.0198
     60  CD1       30.1330   45.5900   30.0180 C.ar   40  TYR40      -0.0009
     61  CD2       32.0080   45.8080   31.4670 C.ar   40  TYR40      -0.0009
     62  CE1       30.8420   46.1910   29.0020 C.ar   40  TYR40       0.0417
     63  CE2       32.7280   46.4160   30.4480 C.ar   40  TYR40       0.0417
     64  CZ        32.1370   46.6020   29.2210 C.ar   40  TYR40       0.1957
     65  OH        32.8430   47.1980   28.1980 O.3    40  TYR40      -0.2866
     66  N         29.9920   43.4020   35.3230 N.am   41  SER41      -0.1936
     67  CA        29.2680   42.8770   36.4700 C.3    41  SER41       0.2055
     68  C         27.7870   43.2110   36.4020 C.2    41  SER41       0.2644
     69  O         26.9530   42.4850   36.9330 O.2    41  SER41      -0.2714
     70  CB        29.8690   43.4270   37.7620 C.3    41  SER41       0.2130
     71  OG        31.1480   42.8630   37.9740 O.3    41  SER41      -0.2179
     72  N         27.4630   44.3180   35.7530 N.am   42  GLY42      -0.1939
     73  CA        26.0790   44.7340   35.6310 C.3    42  GLY42       0.2014
     74  C         25.8930   45.7570   34.5310 C.2    42  GLY42       0.2639
     75  O         26.8570   46.2110   33.9210 O.2    42  GLY42      -0.2714
     76  N         24.6400   46.1200   34.2880 N.am   43  PHE43      -0.1960
     77  CA        24.2940   46.9960   33.1960 C.3    43  PHE43       0.1756
     78  C         23.2780   48.0200   33.6680 C.2    43  PHE43       0.2461
     79  O         22.3640   47.6920   34.4310 O.2    43  PHE43      -0.2730
     80  CB        23.7150   46.1870   32.0290 C.3    43  PHE43       0.0574
     81  CG        24.5410   44.9830   31.6600 C.ar   43  PHE43      -0.0200
     82  CD1       24.3860   43.7900   32.3360 C.ar   43  PHE43      -0.0042
     83  CD2       25.4870   45.0580   30.6560 C.ar   43  PHE43      -0.0042
     84  CE1       25.1510   42.6860   32.0110 C.ar   43  PHE43      -0.0003
     85  CE2       26.2540   43.9660   30.3280 C.ar   43  PHE43      -0.0003
     86  CZ        26.0840   42.7740   31.0090 C.ar   43  PHE43      -0.0000
     87  N         23.4520   49.2760   33.2290 N.am   44  PRO44      -0.2727
     88  CA        22.4380   50.2910   33.4000 C.3    44  PRO44       0.1402
     89  C         21.2260   49.9050   32.5780 C.2    44  PRO44       0.2269
     90  O         21.3660   49.3370   31.4980 O.2    44  PRO44      -0.2865
     91  CB        23.0790   51.5390   32.7870 C.3    44  PRO44       0.0296
     92  CG        24.5320   51.2540   32.7180 C.3    44  PRO44       0.0237
     93  CD        24.6430   49.7880   32.5340 C.3    44  PRO44       0.0939
     94  N         29.9360   55.1150   33.8840 N.3   145  ILE145     -0.1245
     95  CA        29.8820   54.3360   35.1000 C.3   145  ILE145      0.1561
     96  C         31.2340   54.3810   35.7850 C.2   145  ILE145      0.2260
     97  O         32.2740   54.4030   35.1330 O.2   145  ILE145     -0.2867
     98  CB        29.4780   52.8680   34.8160 C.3   145  ILE145      0.0252
     99  CG1       29.2890   52.0950   36.1210 C.3   145  ILE145      0.0019
    100  CG2       30.5000   52.1810   33.9010 C.3   145  ILE145      0.0019
    101  CD1       28.6710   50.7200   35.9350 C.3   145  ILE145      0.0001
    102  N         33.0830   52.2440   39.0290 N.3   147  THR147     -0.1218
    103  CA        32.9180   51.1260   39.9450 C.3   147  THR147      0.1862
    104  C         33.8660   51.2830   41.1210 C.2   147  THR147      0.2287
    105  O         34.8130   52.0600   41.0630 O.2   147  THR147     -0.2866
    106  CB        33.2020   49.7670   39.2600 C.3   147  THR147      0.1770
    107  OG1       34.5740   49.7130   38.8670 O.3   147  THR147     -0.2211
    108  CG2       32.3140   49.5650   38.0400 C.3   147  THR147      0.0375
    109  N         36.1470   49.4540   41.9780 N.3   149  LYS149     -0.1231
    110  CA        37.4900   49.1820   41.4820 C.3   149  LYS149      0.1693
    111  C         38.0780   50.3640   40.7010 C.2   149  LYS149      0.2592
    112  O         39.2770   50.6100   40.7690 O.2   149  LYS149     -0.2718
    113  CB        37.5120   47.8940   40.6430 C.3   149  LYS149      0.0285
    114  CG        38.9020   47.4820   40.1850 C.3   149  LYS149      0.0035
    115  CD        38.9640   46.0150   39.7720 C.3   149  LYS149      0.0206
    116  CE        39.1380   45.1080   40.9860 C.3   149  LYS149      0.1093
    117  NZ        39.2280   43.6670   40.6030 N.3   149  LYS149     -0.1314
    118  N         37.2450   51.0890   39.9600 N.am  150  ASP150     -0.1974
    119  CA        37.7070   52.2920   39.2640 C.3   150  ASP150      0.1709
    120  C         38.1580   53.3720   40.2600 C.2   150  ASP150      0.2293
    121  O         39.1140   54.1060   40.0100 O.2   150  ASP150     -0.2864
    122  CB        36.6090   52.8600   38.3600 C.3   150  ASP150      0.1436
    123  CG        36.2620   51.9440   37.2060 C.2   150  ASP150      0.3671
    124  OD1       37.1610   51.2330   36.6990 O.co2 150  ASP150     -0.2456
    125  OD2       35.0820   51.9410   36.7990 O.co2 150  ASP150     -0.2456
    126  N         41.4220   52.0920   41.8310 N.3   153  LYS153     -0.1245
    127  CA        42.4870   52.3100   40.8620 C.3   153  LYS153      0.1561
    128  C         42.9030   53.7710   40.8650 C.2   153  LYS153      0.2260
    129  O         44.0880   54.0840   40.8200 O.2   153  LYS153     -0.2867
    130  CB        42.0400   51.8970   39.4570 C.3   153  LYS153      0.0271
    131  CG        41.9700   50.3950   39.2340 C.3   153  LYS153      0.0035
    132  CD        41.5010   50.0840   37.8190 C.3   153  LYS153      0.0206
    133  CE        41.3150   48.5910   37.6000 C.3   153  LYS153      0.1093
    134  NZ        40.8320   48.2990   36.2150 N.3   153  LYS153     -0.1314
@<TRIPOS>BOND
     1    30    29    1
     2    21    18    1
     3    21    22    1
     4    18    17    1
     5    18    19    1
     6    29    31    1
     7    29    28    1
     8    23    17    1
     9    23    22    1
    10    24    19   am
    11    24    25    1
    12    28    25    1
    13    19    20    2
    14    25    26    1
    15    27    26    2
    16    26    32   am
    17    35    34    2
    18    32    33    1
    19    45    44    1
    20    14    15    1
    21    14    11    1
    22    34    33    1
    23    34    40   am
    24    46    44    1
    25    15    16    1
    26    41    44    1
    27    41    40    1
    28    41    42    1
    29    33    36    1
    30    65    64    1
    31    42    43    2
    32    11    12    1
    33    11    10    1
    34    36    37    1
    35    12    13    2
    36    16    10    1
    37    62    64   ar
    38    62    60   ar
    39    64    63   ar
    40    10     3   am
    41    47    48    1
    42    37    39    1
    43    37    38    1
    44    60    59   ar
    45    85    83   ar
    46    85    86   ar
    47    63    61   ar
    48    53    51    1
    49    83    81   ar
    50     3     2    1
    51     3     4    2
    52    86    84   ar
    53    59    61   ar
    54    59    58    1
    55    48    51    1
    56    48    49    1
    57    52    51    1
    58    90    89    2
    59     2     5    1
    60     2     1    1
    61    81    80    1
    62    81    82   ar
    63     5     6    1
    64     7     6    1
    65     7     8    1
    66    84    82   ar
    67    80    77    1
    68    54    49   am
    69    54    55    1
    70    58    55    1
    71    49    50    2
    72    93    92    1
    73    93    87    1
    74    89    88    1
    75     9     8    1
    76    92    91    1
    77    91    88    1
    78    55    56    1
    79    77    78    1
    80    77    76    1
    81    87    88    1
    82    87    78   am
    83    78    79    2
    84    57    56    2
    85    94    95    1
    86   100    98    1
    87    75    74    2
    88    56    66   am
    89    76    74   am
    90    74    73    1
    91    98    95    1
    92    98    99    1
    93    95    96    1
    94    97    96    2
    95    66    67    1
    96    73    72    1
    97    72    68   am
    98   101    99    1
    99   134   133    1
   100    68    67    1
   101    68    69    2
   102    67    70    1
   103   124   123   ar
   104   125   123   ar
   105   123   122    1
   106   133   132    1
   107    70    71    1
   108   132   131    1
   109   108   106    1
   110   122   119    1
   111   107   106    1
   112   102   103    1
   113   131   130    1
   114   106   103    1
   115   119   118    1
   116   119   120    1
   117   130   127    1
   118   115   114    1
   119   115   116    1
   120   103   104    1
   121   118   111   am
   122   121   120    2
   123   114   113    1
   124   117   116    1
   125   113   110    1
   126   111   112    2
   127   111   110    1
   128   129   128    2
   129   127   128    1
   130   127   126    1
   131   105   104    2
   132   110   109    1
