@<TRIPOS>MOLECULE
tmp/2j9mA00.pdb
 137 130 0 0 0
SMALL
GASTEIGER

@<TRIPOS>ATOM
      1  N         -0.0980   22.4840    3.5880 N.3    10  ILE10      -0.1231
      2  CA         1.0950   22.8210    4.3690 C.3    10  ILE10       0.1692
      3  C          0.9560   22.5850    5.8720 C.2    10  ILE10       0.2592
      4  O          1.9280   22.7020    6.6140 O.2    10  ILE10      -0.2718
      5  CB         1.5690   24.2740    4.0950 C.3    10  ILE10       0.0266
      6  CG1        0.4220   25.2710    4.3280 C.3    10  ILE10       0.0019
      7  CG2        2.1670   24.3630    2.6660 C.3    10  ILE10       0.0020
      8  CD1        0.7890   26.7520    4.2200 C.3    10  ILE10       0.0001
      9  N         -0.2460   22.2360    6.3130 N.am   11  GLY11      -0.1957
     10  CA        -0.5080   22.0190    7.7330 C.3    11  GLY11       0.1869
     11  C         -1.9370   21.6160    8.0510 C.2    11  GLY11       0.2309
     12  O         -2.8310   21.6810    7.2080 O.2    11  GLY11      -0.2863
     13  N         -4.7060   23.5930    6.4430 N.3    18  VAL18      -0.1245
     14  CA        -4.0920   24.7650    5.8260 C.3    18  VAL18       0.1561
     15  C         -3.4570   24.4480    4.4970 C.2    18  VAL18       0.2260
     16  O         -2.7020   23.4880    4.3590 O.2    18  VAL18      -0.2867
     17  CB        -3.0430   25.4110    6.7310 C.3    18  VAL18       0.0252
     18  CG1       -2.4320   26.6280    6.0510 C.3    18  VAL18       0.0019
     19  CG2       -3.6840   25.8330    8.0300 C.3    18  VAL18       0.0019
     20  N         -1.3360   26.1440    1.0740 N.3    20  LYS20      -0.1245
     21  CA        -0.6750   27.2020    0.3180 C.3    20  LYS20       0.1561
     22  C         -1.5720   27.4140   -0.8740 C.2    20  LYS20       0.2260
     23  O         -2.0720   26.4460   -1.4450 O.2    20  LYS20      -0.2867
     24  CB         0.6990   26.7460   -0.1600 C.3    20  LYS20       0.0271
     25  CG         1.4450   27.7630   -1.0140 C.3    20  LYS20       0.0035
     26  CD         2.8940   27.3430   -1.1520 C.3    20  LYS20       0.0206
     27  CE         3.8010   28.4900   -1.5810 C.3    20  LYS20       0.1093
     28  NZ         4.9930   27.9720   -2.3390 N.3    20  LYS20      -0.1314
     29  N         -2.0780   31.8350    2.8360 N.3    31  ALA31      -0.1245
     30  CA        -2.3730   30.6080    3.5320 C.3    31  ALA31       0.1562
     31  C         -3.8900   30.5290    3.7020 C.2    31  ALA31       0.2260
     32  O         -4.5380   31.4440    4.2320 O.2    31  ALA31      -0.2867
     33  CB        -1.6530   30.5740    4.8690 C.3    31  ALA31       0.0290
     34  N          0.3230   37.2610   12.6430 N.3    56  VAL56      -0.1245
     35  CA        -0.0260   36.8800   11.2830 C.3    56  VAL56       0.1561
     36  C         -1.3640   37.5100   10.9380 C.2    56  VAL56       0.2260
     37  O         -2.3500   37.3850   11.6800 O.2    56  VAL56      -0.2867
     38  CB        -0.0650   35.3580   11.1150 C.3    56  VAL56       0.0252
     39  CG1       -0.6780   34.9720    9.7950 C.3    56  VAL56       0.0019
     40  CG2        1.3300   34.7860   11.2290 C.3    56  VAL56       0.0019
     41  N         -4.9850   33.9760    5.3810 N.3    72  PHE72      -0.1227
     42  CA        -3.9160   34.5360    6.1880 C.3    72  PHE72       0.1736
     43  C         -2.7510   34.9120    5.2980 C.2    72  PHE72       0.2595
     44  O         -2.5360   34.2790    4.2490 O.2    72  PHE72      -0.2718
     45  CB        -3.3850   33.4830    7.1930 C.3    72  PHE72       0.0547
     46  CG        -4.3690   33.0650    8.2170 C.ar   72  PHE72      -0.0202
     47  CD1       -4.5410   33.8100    9.3840 C.ar   72  PHE72      -0.0042
     48  CD2       -5.0990   31.9030    8.0530 C.ar   72  PHE72      -0.0042
     49  CE1       -5.4470   33.4150   10.3740 C.ar   72  PHE72      -0.0003
     50  CE2       -6.0200   31.4820    9.0350 C.ar   72  PHE72      -0.0003
     51  CZ        -6.1920   32.2400   10.1990 C.ar   72  PHE72      -0.0000
     52  N         -1.9670   35.8850    5.7630 N.am   73  GLU73      -0.1965
     53  CA        -0.6950   36.2210    5.1550 C.3    73  GLU73       0.1733
     54  C          0.2050   34.9880    5.1820 C.2    73  GLU73       0.2616
     55  O          0.1070   34.1700    6.0880 O.2    73  GLU73      -0.2715
     56  CB        -0.0470   37.4200    5.8770 C.3    73  GLU73       0.0429
     57  CG         1.0640   37.0620    6.8590 C.3    73  GLU73       0.1163
     58  CD         1.6590   38.2650    7.5850 C.2    73  GLU73       0.3649
     59  OE1        2.8620   38.5380    7.3830 O.co2  73  GLU73      -0.2457
     60  OE2        0.9450   38.9340    8.3610 O.co2  73  GLU73      -0.2457
     61  N          1.0640   34.8500    4.1800 N.am   74  PHE74      -0.1960
     62  CA         1.9280   33.6750    4.0370 C.3    74  PHE74       0.1771
     63  C          3.3850   33.8700    4.5170 C.2    74  PHE74       0.2619
     64  O          4.0670   34.8340    4.1340 O.2    74  PHE74      -0.2715
     65  CB         1.9240   33.2170    2.5890 C.3    74  PHE74       0.0574
     66  CG         2.6200   31.9230    2.3760 C.ar   74  PHE74      -0.0200
     67  CD1        2.0040   30.7290    2.7260 C.ar   74  PHE74      -0.0042
     68  CD2        3.9030   31.8990    1.8710 C.ar   74  PHE74      -0.0042
     69  CE1        2.6580   29.5240    2.5540 C.ar   74  PHE74      -0.0003
     70  CE2        4.5690   30.6970    1.6840 C.ar   74  PHE74      -0.0003
     71  CZ         3.9470   29.5040    2.0190 C.ar   74  PHE74      -0.0000
     72  N          3.8430   32.9590    5.3780 N.am   75  LEU75      -0.1963
     73  CA         5.2110   32.9840    5.8980 C.3    75  LEU75       0.1728
     74  C          5.8130   31.6410    5.5390 C.2    75  LEU75       0.2616
     75  O          5.0920   30.6480    5.4570 O.2    75  LEU75      -0.2715
     76  CB         5.2260   33.1320    7.4130 C.3    75  LEU75       0.0311
     77  CG         5.0040   34.4640    8.1420 C.3    75  LEU75       0.0022
     78  CD1        6.3100   35.2440    8.3540 C.3    75  LEU75       0.0001
     79  CD2        3.9460   35.3010    7.4890 C.3    75  LEU75       0.0001
     80  N          7.1260   31.5780    5.3720 N.am   76  HIS76      -0.1959
     81  CA         7.6870   30.4180    4.6980 C.3    76  HIS76       0.1787
     82  C          8.0090   29.2390    5.5740 C.2    76  HIS76       0.2620
     83  O          8.3450   28.1960    5.0580 O.2    76  HIS76      -0.2715
     84  CB         8.9070   30.8110    3.8610 C.3    76  HIS76       0.0785
     85  CG         8.7060   30.6390    2.3860 C.ar   76  HIS76       0.0821
     86  ND1        8.4830   31.7010    1.5390 N.ar   76  HIS76      -0.2267
     87  CD2        8.6990   29.5280    1.6110 C.ar   76  HIS76       0.1154
     88  CE1        8.3640   31.2570    0.3000 C.ar   76  HIS76       0.1986
     89  NE2        8.4840   29.9410    0.3170 N.ar   76  HIS76      -0.2212
     90  N          7.8940   29.3980    6.8880 N.am   77  GLN77      -0.1963
     91  CA         8.2030   28.3270    7.8220 C.3    77  GLN77       0.1733
     92  C          7.6100   28.5280    9.2270 C.2    77  GLN77       0.2616
     93  O          7.3860   29.6610    9.6640 O.2    77  GLN77      -0.2715
     94  CB         9.7140   28.1810    7.9280 C.3    77  GLN77       0.0408
     95  CG        10.1440   26.9100    8.6440 C.3    77  GLN77       0.0908
     96  CD        11.5810   26.5570    8.3410 C.2    77  GLN77       0.2608
     97  OE1       12.4530   26.6830    9.2040 O.2    77  GLN77      -0.2717
     98  NE2       11.8450   26.1460    7.0980 N.am   77  GLN77      -0.0878
     99  N          7.3950   27.4230    9.9360 N.am   78  ASP78      -0.1971
    100  CA         7.0130   27.4790   11.3440 C.3    78  ASP78       0.1709
    101  C          8.1460   27.0890   12.2920 C.2    78  ASP78       0.2293
    102  O          9.1910   26.5920   11.8710 O.2    78  ASP78      -0.2864
    103  CB         5.7270   26.6950   11.6280 C.3    78  ASP78       0.1436
    104  CG         5.9440   25.1950   11.6310 C.2    78  ASP78       0.3671
    105  OD1        7.0350   24.7280   12.0410 O.co2  78  ASP78      -0.2456
    106  OD2        5.0080   24.4780   11.2270 O.co2  78  ASP78      -0.2456
    107  N          9.3380   23.3510   12.7750 N.3    81  LYS81      -0.1245
    108  CA        10.1620   22.9670   11.6380 C.3    81  LYS81       0.1561
    109  C         11.5420   23.6070   11.8020 C.2    81  LYS81       0.2260
    110  O         12.5530   22.9700   11.5080 O.2    81  LYS81      -0.2867
    111  CB         9.4790   23.3370   10.3120 C.3    81  LYS81       0.0271
    112  CG        10.0860   22.6950    9.0560 C.3    81  LYS81       0.0035
    113  CD         9.1280   22.7960    7.8490 C.3    81  LYS81       0.0206
    114  CE         9.7780   22.2290    6.5730 C.3    81  LYS81       0.1093
    115  NZ         9.0910   22.5980    5.2810 N.3    81  LYS81      -0.1314
    116  N          4.0310   25.1650   16.3940 N.3   123  GLN123     -0.1245
    117  CA         3.3660   25.0920   15.0760 C.3   123  GLN123      0.1566
    118  C          2.5610   26.3710   14.7180 C.2   123  GLN123      0.2260
    119  O          2.2820   26.6240   13.5510 O.2   123  GLN123     -0.2867
    120  CB         2.5330   23.7860   14.9060 C.3   123  GLN123      0.0367
    121  CG         3.3920   22.5110   14.6830 C.3   123  GLN123      0.0905
    122  CD         2.6000   21.1930   14.4260 C.2   123  GLN123      0.2608
    123  OE1        2.9840   20.3810   13.5530 O.2   123  GLN123     -0.2717
    124  NE2        1.5230   20.9590   15.2080 N.am  123  GLN123     -0.0878
    125  N          5.2830   31.5560   13.2310 N.3   126  LEU126     -0.1245
    126  CA         5.8380   31.5690   11.8670 C.3   126  LEU126      0.1561
    127  C          6.9190   32.6060   11.7030 C.2   126  LEU126      0.2260
    128  O          6.7930   33.7300   12.2140 O.2   126  LEU126     -0.2867
    129  CB         4.7420   31.7920   10.8410 C.3   126  LEU126      0.0270
    130  CG         3.6090   30.7670   10.7850 C.3   126  LEU126      0.0019
    131  CD1        2.3880   31.5100   10.3300 C.3   126  LEU126      0.0001
    132  CD2        3.9830   29.6920    9.7880 C.3   126  LEU126      0.0001
    133  N          0.3880   32.9630   14.8930 N.3   136  ALA136     -0.1245
    134  CA        -0.6380   32.5770   13.9540 C.3   136  ALA136      0.1562
    135  C         -1.7230   31.8130   14.6760 C.2   136  ALA136      0.2260
    136  O         -1.4950   31.2230   15.7390 O.2   136  ALA136     -0.2867
    137  CB        -0.0430   31.7220   12.9160 C.3   136  ALA136      0.0290
@<TRIPOS>BOND
     1    28    27    1
     2    27    26    1
     3    23    22    2
     4    26    25    1
     5    25    24    1
     6    22    21    1
     7    24    21    1
     8    88    89   ar
     9    88    86   ar
    10    89    87   ar
    11    21    20    1
    12    86    85   ar
    13    87    85   ar
    14    70    68   ar
    15    70    71   ar
    16    68    66   ar
    17    71    69   ar
    18    66    65    1
    19    66    67   ar
    20    85    84    1
    21    69    67   ar
    22    65    62    1
    23     7     5    1
    24    29    30    1
    25    30    31    1
    26    30    33    1
    27     1     2    1
    28    31    32    2
    29    84    81    1
    30    62    61    1
    31    62    63    1
    32     5     6    1
    33     5     2    1
    34    64    63    2
    35    61    54   am
    36     8     6    1
    37    44    43    2
    38    16    15    2
    39     2     3    1
    40    15    14    1
    41    63    72   am
    42    81    80    1
    43    81    82    1
    44    83    82    2
    45    53    54    1
    46    53    52    1
    47    53    56    1
    48    54    55    2
    49   115   114    1
    50    43    52   am
    51    43    42    1
    52    80    74   am
    53    72    73    1
    54    41    42    1
    55    75    74    2
    56    74    73    1
    57    82    90   am
    58    14    13    1
    59    14    17    1
    60     3     9   am
    61     3     4    2
    62    56    57    1
    63    73    76    1
    64    18    17    1
    65    42    45    1
    66     9    10    1
    67   114   113    1
    68    17    19    1
    69    57    58    1
    70    90    91    1
    71    98    96   am
    72    45    46    1
    73    12    11    2
    74    59    58   ar
    75    76    77    1
    76    79    77    1
    77    58    60   ar
    78    10    11    1
    79    91    94    1
    80    91    92    1
    81   113   112    1
    82    94    95    1
    83    48    46   ar
    84    48    50   ar
    85    77    78    1
    86    46    47   ar
    87    96    95    1
    88    96    97    2
    89    50    51   ar
    90   112   111    1
    91    92    93    2
    92    92    99   am
    93    47    49   ar
    94   132   130    1
    95    39    38    1
    96    99   100    1
    97    51    49   ar
    98   111   108    1
    99   131   130    1
   100   130   129    1
   101   129   126    1
   102    36    35    1
   103    36    37    2
   104    38    40    1
   105    38    35    1
   106   106   104   ar
   107    35    34    1
   108   100   103    1
   109   100   101    1
   110   110   109    2
   111   103   104    1
   112   104   105   ar
   113   108   109    1
   114   108   107    1
   115   127   126    1
   116   127   128    2
   117   126   125    1
   118   102   101    2
   119   137   134    1
   120   119   118    2
   121   123   122    2
   122   134   135    1
   123   134   133    1
   124   122   121    1
   125   122   124   am
   126   135   136    2
   127   121   120    1
   128   118   117    1
   129   120   117    1
   130   117   116    1
