@<TRIPOS>MOLECULE
tmp/2j9nA00.pdb
 105 106 0 0 0
SMALL
GASTEIGER

@<TRIPOS>ATOM
      1  N         19.8130   40.8790   24.2370 N.3    40  HIS40      -0.1241
      2  CA        20.7770   39.7560   24.1820 C.3    40  HIS40       0.1621
      3  C         21.8770   39.8750   25.2460 C.2    40  HIS40       0.2264
      4  O         22.6330   38.9170   25.4620 O.2    40  HIS40      -0.2867
      5  CB        21.3280   39.5040   22.7660 C.3    40  HIS40       0.0745
      6  CG        22.4180   40.4310   22.3250 C.ar   40  HIS40       0.0817
      7  ND1       23.7520   40.1760   22.5540 N.ar   40  HIS40      -0.2268
      8  CD2       22.3740   41.5640   21.5840 C.ar   40  HIS40       0.1154
      9  CE1       24.4780   41.1330   22.0030 C.ar   40  HIS40       0.1986
     10  NE2       23.6650   41.9980   21.4220 N.ar   40  HIS40      -0.2212
     11  N          8.9170   42.8020   25.4480 N.3    74  PRO74      -0.2102
     12  CA         7.9440   41.7010   25.4000 C.3    74  PRO74       0.1504
     13  C          8.0720   40.8530   24.1390 C.2    74  PRO74       0.2576
     14  O          7.8280   39.6310   24.1800 O.2    74  PRO74      -0.2718
     15  CB         6.5770   42.4210   25.4250 C.3    74  PRO74       0.0282
     16  CG         6.8740   43.8590   25.1020 C.3    74  PRO74       0.0208
     17  CD         8.2450   44.0960   25.6380 C.3    74  PRO74       0.0893
     18  N          8.4430   41.4910   23.0410 N.am   75  SER75      -0.1938
     19  CA         8.5450   40.8330   21.7340 C.3    75  SER75       0.2055
     20  C          9.9680   40.4890   21.2920 C.2    75  SER75       0.2643
     21  O         10.2050   40.2100   20.1210 O.2    75  SER75      -0.2714
     22  CB         7.8550   41.6890   20.6730 C.3    75  SER75       0.2130
     23  OG         6.4870   41.9080   21.0180 O.3    75  SER75      -0.2179
     24  N         10.9170   40.5170   22.2210 N.am   76  TYR76      -0.1959
     25  CA        12.2990   40.1270   21.8860 C.3    76  TYR76       0.1771
     26  C         12.3470   38.7190   21.3050 C.2    76  TYR76       0.2620
     27  O         11.8410   37.7710   21.9170 O.2    76  TYR76      -0.2715
     28  CB        13.2020   40.1730   23.0990 C.3    76  TYR76       0.0574
     29  CG        14.6060   39.6880   22.8130 C.ar   76  TYR76      -0.0198
     30  CD1       15.3690   40.2330   21.7820 C.ar   76  TYR76      -0.0009
     31  CD2       15.1700   38.6790   23.5780 C.ar   76  TYR76      -0.0009
     32  CE1       16.6600   39.7850   21.5390 C.ar   76  TYR76       0.0417
     33  CE2       16.4490   38.2250   23.3500 C.ar   76  TYR76       0.0417
     34  CZ        17.1930   38.7760   22.3300 C.ar   76  TYR76       0.1957
     35  OH        18.4900   38.3410   22.0740 O.3    76  TYR76      -0.2866
     36  N         12.9650   38.6050   20.1280 N.am   77  ASN77      -0.1958
     37  CA        13.2280   37.3100   19.4720 C.3    77  ASN77       0.1819
     38  C         14.7180   37.1000   19.4000 C.2    77  ASN77       0.2622
     39  O         15.3870   37.7430   18.5980 O.2    77  ASN77      -0.2715
     40  CB        12.6280   37.3330   18.0710 C.3    77  ASN77       0.1195
     41  CG        12.7240   36.0080   17.3770 C.2    77  ASN77       0.2630
     42  OD1       13.7140   35.3130   17.5170 O.2    77  ASN77      -0.2716
     43  ND2       11.6930   35.6630   16.5990 N.am   77  ASN77      -0.0877
     44  N         15.2320   36.1790   20.2080 N.am   78  SER78      -0.1936
     45  CA        16.6710   35.9450   20.2840 C.3    78  SER78       0.2055
     46  C         17.2660   35.2880   19.0380 C.2    78  SER78       0.2643
     47  O         18.4970   35.3330   18.8600 O.2    78  SER78      -0.2714
     48  CB        17.0270   35.1050   21.5020 C.3    78  SER78       0.2130
     49  OG        16.3850   33.8400   21.4650 O.3    78  SER78      -0.2179
     50  N         16.4190   34.6890   18.2070 N.am   79  ASN79      -0.1957
     51  CA        16.8780   34.1200   16.9430 C.3    79  ASN79       0.1819
     52  C         17.1740   35.1880   15.8830 C.2    79  ASN79       0.2622
     53  O         18.2310   35.1790   15.2520 O.2    79  ASN79      -0.2715
     54  CB        15.8460   33.1370   16.4140 C.3    79  ASN79       0.1195
     55  CG        15.6520   31.9530   17.3220 C.2    79  ASN79       0.2630
     56  OD1       16.5840   31.4910   17.9850 O.2    79  ASN79      -0.2716
     57  ND2       14.4480   31.4150   17.3070 N.am   79  ASN79      -0.0877
     58  N         16.2380   36.1130   15.6910 N.am   80  THR80      -0.1937
     59  CA        16.3710   37.1640   14.6720 C.3    80  THR80       0.2028
     60  C         16.9720   38.4670   15.2100 C.2    80  THR80       0.2642
     61  O         17.3870   39.3250   14.4220 O.2    80  THR80      -0.2714
     62  CB        15.0110   37.4780   14.0790 C.3    80  THR80       0.1808
     63  OG1       14.1600   37.9810   15.1080 O.3    80  THR80      -0.2208
     64  CG2       14.3670   36.1990   13.4860 C.3    80  THR80       0.0379
     65  N         16.9980   38.5890   16.5380 N.am   81  LEU81      -0.1977
     66  CA        17.3740   39.8020   17.2910 C.3    81  LEU81       0.1596
     67  C         16.3980   40.9490   17.0590 C.2    81  LEU81       0.2287
     68  O         16.7030   42.0990   17.3370 O.2    81  LEU81      -0.2864
     69  CB        18.8510   40.2110   17.0900 C.3    81  LEU81       0.0297
     70  CG        19.8930   39.2600   17.7090 C.3    81  LEU81       0.0022
     71  CD1       21.3030   39.8390   17.6290 C.3    81  LEU81       0.0001
     72  CD2       19.5980   38.9220   19.1460 C.3    81  LEU81       0.0001
     73  N         17.0550   39.7320    6.6100 N.3   155  GLN155     -0.1245
     74  CA        17.4500   39.7670    8.0380 C.3   155  GLN155      0.1566
     75  C         17.1360   41.0730    8.7720 C.2   155  GLN155      0.2260
     76  O         17.1810   41.1070   10.0020 O.2   155  GLN155     -0.2867
     77  CB        18.9450   39.4800    8.1600 C.3   155  GLN155      0.0367
     78  CG        19.3640   38.0860    7.6500 C.3   155  GLN155      0.0905
     79  CD        20.8310   38.0260    7.3020 C.2   155  GLN155      0.2608
     80  OE1       21.6800   38.1000    8.1880 O.2   155  GLN155     -0.2717
     81  NE2       21.1430   37.9030    6.0040 N.am  155  GLN155     -0.0878
     82  N         23.7370   45.9810   18.5630 N.3   192  SER192     -0.1202
     83  CA        22.9470   44.7480   18.5220 C.3   192  SER192      0.2020
     84  C         23.7000   43.5840   17.8520 C.2   192  SER192      0.2619
     85  O         23.9960   42.5740   18.5190 O.2   192  SER192     -0.2717
     86  CB        21.5980   45.0110   17.8590 C.3   192  SER192      0.2103
     87  OG        20.7930   43.8300   17.8590 O.3   192  SER192     -0.2182
     88  N         24.0040   43.6880   16.5490 N.am  193  TRP193     -0.1961
     89  CA        24.6240   42.5730   15.8640 C.3   193  TRP193      0.1771
     90  C         25.3570   42.9750   14.5810 C.2   193  TRP193      0.2620
     91  O         25.4120   44.1540   14.2180 O.2   193  TRP193     -0.2715
     92  CB        23.6150   41.4580   15.6110 C.3   193  TRP193      0.0590
     93  CG        22.4810   41.7280   14.6470 C.ar  193  TRP193      0.0006
     94  CD1       21.2940   42.3140   14.9490 C.ar  193  TRP193      0.0946
     95  CD2       22.3880   41.3360   13.2600 C.ar  193  TRP193      0.0152
     96  NE1       20.4650   42.3350   13.8460 N.ar  193  TRP193     -0.2442
     97  CE2       21.1230   41.7490   12.7950 C.ar  193  TRP193      0.0810
     98  CE3       23.2560   40.7030   12.3660 C.ar  193  TRP193      0.0012
     99  CZ2       20.7020   41.5380   11.4870 C.ar  193  TRP193      0.0191
    100  CZ3       22.8290   40.5090   11.0520 C.ar  193  TRP193      0.0001
    101  CH2       21.5670   40.9150   10.6380 C.ar  193  TRP193      0.0015
    102  N         25.9510   41.9860   13.9360 N.am  194  GLY194     -0.1954
    103  CA        26.6250   42.1640   12.6710 C.3   194  GLY194      0.1869
    104  C         27.2870   40.8510   12.3270 C.2   194  GLY194      0.2309
    105  O         27.4140   39.9770   13.1780 O.2   194  GLY194     -0.2863
@<TRIPOS>BOND
     1    81    79   am
     2    73    74    1
     3    79    78    1
     4    79    80    2
     5    78    77    1
     6    74    77    1
     7    74    75    1
     8    75    76    2
     9   101   100   ar
    10   101    99   ar
    11   100    98   ar
    12    99    97   ar
    13   104   103    1
    14   104   105    2
    15    98    95   ar
    16   103   102    1
    17    97    95   ar
    18    97    96   ar
    19    95    93   ar
    20    64    62    1
    21    96    94   ar
    22   102    90   am
    23    62    59    1
    24    62    63    1
    25    91    90    2
    26    61    60    2
    27    90    89    1
    28    93    94   ar
    29    93    92    1
    30    59    60    1
    31    59    58    1
    32    60    65   am
    33    53    52    2
    34    92    89    1
    35    58    52   am
    36    89    88    1
    37    52    51    1
    38    54    51    1
    39    54    55    1
    40    65    66    1
    41    88    84   am
    42    43    41   am
    43    51    50    1
    44    67    66    1
    45    67    68    2
    46    69    66    1
    47    69    70    1
    48    57    55   am
    49    55    56    2
    50    41    42    2
    51    41    40    1
    52    71    70    1
    53    70    72    1
    54    84    85    2
    55    84    83    1
    56    87    86    1
    57    86    83    1
    58    40    37    1
    59    50    46   am
    60    83    82    1
    61    39    38    2
    62    47    46    2
    63    46    45    1
    64    38    37    1
    65    38    44   am
    66    37    36    1
    67    21    20    2
    68    36    26   am
    69    44    45    1
    70    45    48    1
    71    22    23    1
    72    22    19    1
    73    20    19    1
    74    20    24   am
    75    26    25    1
    76    26    27    2
    77    10     8   ar
    78    10     9   ar
    79    49    48    1
    80    32    30   ar
    81    32    34   ar
    82     8     6   ar
    83    19    18    1
    84    30    29   ar
    85    25    24    1
    86    25    28    1
    87     9     7   ar
    88    35    34    1
    89     6     7   ar
    90     6     5    1
    91    34    33   ar
    92     5     2    1
    93    29    28    1
    94    29    31   ar
    95    18    13   am
    96    33    31   ar
    97    13    14    2
    98    13    12    1
    99     2     1    1
   100     2     3    1
   101    16    15    1
   102    16    17    1
   103     3     4    2
   104    12    15    1
   105    12    11    1
   106    11    17    1
