@<TRIPOS>MOLECULE
tmp/2j9rA00.pdb
 149 142 0 0 0
SMALL
GASTEIGER

@<TRIPOS>ATOM
      1  N        -36.8230   19.0480    8.5800 N.3    19  MET19      -0.1245
      2  CA       -38.0890   18.3690    8.4720 C.3    19  MET19       0.1570
      3  C        -39.1560   19.3280    8.9820 C.2    19  MET19       0.2261
      4  O        -38.8620   20.2200    9.8030 O.2    19  MET19      -0.2867
      5  CB       -38.0840   17.1160    9.3340 C.3    19  MET19       0.0387
      6  CG       -37.2290   16.0100    8.7930 C.3    19  MET19       0.0595
      7  SD       -37.4800   14.4190    9.6010 S.3    19  MET19      -0.1393
      8  CE       -39.1880   14.0650    9.1510 C.3    19  MET19       0.0692
      9  N        -41.1620   22.0500    2.9220 N.3    23  LYS23      -0.1245
     10  CA       -40.4480   21.8550    1.6600 C.3    23  LYS23       0.1561
     11  C        -41.3120   21.2090    0.5640 C.2    23  LYS23       0.2260
     12  O        -41.4440   21.7560   -0.5230 O.2    23  LYS23      -0.2867
     13  CB       -39.2010   21.0210    1.8990 C.3    23  LYS23       0.0271
     14  CG       -37.9940   21.8430    2.2790 C.3    23  LYS23       0.0035
     15  CD       -37.1330   21.1640    3.3150 C.3    23  LYS23       0.0206
     16  CE       -37.2830   19.6630    3.2970 C.3    23  LYS23       0.1093
     17  NZ       -37.4050   19.1540    4.6970 N.3    23  LYS23      -0.1314
     18  N        -37.1040   15.2000   -1.7690 N.3    74  GLU74      -0.1245
     19  CA       -36.2050   14.4220   -0.9070 C.3    74  GLU74       0.1567
     20  C        -34.8010   14.2390   -1.4890 C.2    74  GLU74       0.2260
     21  O        -34.2320   13.1390   -1.4320 O.2    74  GLU74      -0.2867
     22  CB       -36.8250   13.0660   -0.5500 C.3    74  GLU74       0.0388
     23  CG       -38.1870   13.1500    0.1490 C.3    74  GLU74       0.1160
     24  CD       -38.0880   13.5030    1.6270 C.2    74  GLU74       0.3649
     25  OE1      -39.1520   13.6580    2.2630 O.co2  74  GLU74      -0.2457
     26  OE2      -36.9590   13.6290    2.1590 O.co2  74  GLU74      -0.2457
     27  N        -31.4890   12.3150   -0.3660 N.3    77  PHE77      -0.1241
     28  CA       -31.3730   10.8840   -0.5590 C.3    77  PHE77       0.1605
     29  C        -30.7100   10.5030   -1.8870 C.2    77  PHE77       0.2264
     30  O        -30.2100    9.3960   -2.0310 O.2    77  PHE77      -0.2867
     31  CB       -32.7400   10.2040   -0.4240 C.3    77  PHE77       0.0534
     32  CG       -33.2900   10.1860    0.9840 C.ar   77  PHE77      -0.0203
     33  CD1      -34.6680   10.1790    1.2000 C.ar   77  PHE77      -0.0042
     34  CD2      -32.4380   10.1700    2.0950 C.ar   77  PHE77      -0.0042
     35  CE1      -35.1920   10.1530    2.5080 C.ar   77  PHE77      -0.0003
     36  CE2      -32.9500   10.1460    3.3970 C.ar   77  PHE77      -0.0003
     37  CZ       -34.3270   10.1330    3.6010 C.ar   77  PHE77      -0.0000
     38  N        -33.6090   18.0990    2.5930 N.3   101  LEU101     -0.1245
     39  CA       -33.0990   18.6320    3.8530 C.3   101  LEU101      0.1561
     40  C        -31.7580   19.3300    3.6620 C.2   101  LEU101      0.2260
     41  O        -30.9180   18.8440    2.8980 O.2   101  LEU101     -0.2867
     42  CB       -32.9520   17.5040    4.8820 C.3   101  LEU101      0.0270
     43  CG       -34.2170   16.7320    5.2480 C.3   101  LEU101      0.0019
     44  CD1      -33.8460   15.4220    5.8890 C.3   101  LEU101      0.0001
     45  CD2      -35.0880   17.5340    6.1760 C.3   101  LEU101      0.0001
     46  N        -29.8090   19.8190    6.4540 N.3   103  GLN103     -0.1231
     47  CA       -29.0190   19.2190    7.5230 C.3   103  GLN103      0.1698
     48  C        -29.6120   17.9000    7.9910 C.2   103  GLN103      0.2592
     49  O        -30.8300   17.7380    8.0450 O.2   103  GLN103     -0.2718
     50  CB       -28.9300   20.1690    8.7170 C.3   103  GLN103      0.0381
     51  CG       -28.4200   21.5810    8.3950 C.3   103  GLN103      0.0905
     52  CD       -28.7320   22.5860    9.5010 C.2   103  GLN103      0.2608
     53  OE1      -28.7050   22.2520   10.6830 O.2   103  GLN103     -0.2717
     54  NE2      -29.0300   23.8230    9.1160 N.am  103  GLN103     -0.0878
     55  N        -28.7460   16.9540    8.3360 N.am  104  ASP104     -0.1960
     56  CA       -29.2010   15.7330    8.9730 C.3   104  ASP104      0.1840
     57  C        -29.5160   16.0540   10.4370 C.2   104  ASP104      0.2622
     58  O        -29.4600   17.2190   10.8430 O.2   104  ASP104     -0.2715
     59  CB       -28.1570   14.6140    8.8420 C.3   104  ASP104      0.1450
     60  CG       -26.8730   14.8920    9.6270 C.2   104  ASP104      0.3671
     61  OD1      -26.7850   15.9070   10.3540 O.co2 104  ASP104     -0.2456
     62  OD2      -25.9330   14.0820    9.5140 O.co2 104  ASP104     -0.2456
     63  N        -29.8170   15.0280   11.2320 N.am  105  PHE105     -0.1974
     64  CA       -30.2190   15.2390   12.6250 C.3   105  PHE105      0.1639
     65  C        -29.1010   15.8080   13.5010 C.2   105  PHE105      0.2290
     66  O        -29.3820   16.3100   14.5880 O.2   105  PHE105     -0.2864
     67  CB       -30.7740   13.9470   13.2350 C.3   105  PHE105      0.0560
     68  CG       -29.7150   13.0050   13.7240 C.ar  105  PHE105     -0.0200
     69  CD1      -29.4020   12.9360   15.0830 C.ar  105  PHE105     -0.0042
     70  CD2      -29.0130   12.1950   12.8270 C.ar  105  PHE105     -0.0042
     71  CE1      -28.4080   12.0740   15.5470 C.ar  105  PHE105     -0.0003
     72  CE2      -28.0150   11.3210   13.2820 C.ar  105  PHE105     -0.0003
     73  CZ       -27.7150   11.2630   14.6490 C.ar  105  PHE105     -0.0000
     74  N        -26.4480   17.7140    4.5970 N.3   110  PHE110     -0.1241
     75  CA       -27.0520   16.4470    4.1910 C.3   110  PHE110      0.1605
     76  C        -26.8320   16.1630    2.7100 C.2   110  PHE110      0.2264
     77  O        -27.2990   16.9160    1.8510 O.2   110  PHE110     -0.2867
     78  CB       -28.5620   16.4770    4.4710 C.3   110  PHE110      0.0534
     79  CG       -29.1560   15.1380    4.8360 C.ar  110  PHE110     -0.0203
     80  CD1      -30.2360   15.0680    5.7240 C.ar  110  PHE110     -0.0042
     81  CD2      -28.6420   13.9480    4.3150 C.ar  110  PHE110     -0.0042
     82  CE1      -30.8000   13.8440    6.0790 C.ar  110  PHE110     -0.0003
     83  CE2      -29.2040   12.7220    4.6580 C.ar  110  PHE110     -0.0003
     84  CZ       -30.2850   12.6700    5.5440 C.ar  110  PHE110     -0.0000
     85  N        -33.4750   19.6280   12.6600 N.3   140  THR140     -0.1218
     86  CA       -34.3190   18.4740   12.9350 C.3   140  THR140      0.1862
     87  C        -33.7310   17.7350   14.1340 C.2   140  THR140      0.2287
     88  O        -32.5670   17.3020   14.1150 O.2   140  THR140     -0.2866
     89  CB       -34.4220   17.5040   11.7500 C.3   140  THR140      0.1770
     90  OG1      -34.7420   18.2180   10.5550 O.3   140  THR140     -0.2211
     91  CG2      -35.5070   16.4720   12.0100 C.3   140  THR140      0.0375
     92  N        -33.6580   14.4750   16.2860 N.3   142  ARG142     -0.1245
     93  CA       -34.0590   13.0930   16.3860 C.3   142  ARG142      0.1563
     94  C        -34.1860   12.6520   17.8440 C.2   142  ARG142      0.2260
     95  O        -33.2750   12.8540   18.6520 O.2   142  ARG142     -0.2867
     96  CB       -33.1240   12.1610   15.6250 C.3   142  ARG142      0.0307
     97  CG       -33.7320   10.7690   15.4580 C.3   142  ARG142      0.0489
     98  CD       -32.7150    9.7560   15.0600 C.3   142  ARG142      0.2205
     99  NE       -32.1800   10.0490   13.7380 N.pl3 142  ARG142     -0.0865
    100  CZ       -31.2990    9.2890   13.0960 C.cat 142  ARG142      0.5346
    101  NH1      -30.8440    8.1650   13.6580 N.pl3 142  ARG142      0.1354
    102  NH2      -30.8890    9.6540   11.8860 N.pl3 142  ARG142      0.1354
    103  N        -26.5840    8.0470    9.9740 N.3   155  ILE155     -0.1231
    104  CA       -26.9790    9.3120    9.3120 C.3   155  ILE155      0.1692
    105  C        -28.3910    9.2130    8.7100 C.2   155  ILE155      0.2592
    106  O        -29.2310   10.1010    8.9190 O.2   155  ILE155     -0.2718
    107  CB       -25.9640    9.7660    8.2200 C.3   155  ILE155      0.0266
    108  CG1      -24.5660    9.9740    8.8250 C.3   155  ILE155      0.0019
    109  CG2      -26.4590   11.0440    7.5240 C.3   155  ILE155      0.0020
    110  CD1      -23.4440   10.1640    7.8020 C.3   155  ILE155      0.0001
    111  N        -28.6320    8.1250    7.9720 N.am  156  ILE156     -0.1966
    112  CA       -29.9350    7.8430    7.3540 C.3   156  ILE156      0.1727
    113  C        -30.8020    6.9150    8.2150 C.2   156  ILE156      0.2616
    114  O        -30.3800    5.8080    8.5870 O.2   156  ILE156     -0.2715
    115  CB       -29.7940    7.2790    5.8960 C.3   156  ILE156      0.0290
    116  CG1      -29.4010    8.4030    4.9250 C.3   156  ILE156      0.0022
    117  CG2      -31.0930    6.5760    5.4350 C.3   156  ILE156      0.0023
    118  CD1      -29.0850    7.9380    3.5070 C.3   156  ILE156      0.0001
    119  N        -32.0040    7.4020    8.5310 N.am  157  LEU157     -0.1963
    120  CA       -33.0540    6.6280    9.2010 C.3   157  LEU157      0.1728
    121  C        -34.4220    7.1810    8.7920 C.2   157  LEU157      0.2616
    122  O        -34.8160    8.2650    9.2250 O.2   157  LEU157     -0.2715
    123  CB       -32.8960    6.6830   10.7250 C.3   157  LEU157      0.0311
    124  CG       -33.6960    5.6830   11.5660 C.3   157  LEU157      0.0022
    125  CD1      -32.8880    4.3950   11.7790 C.3   157  LEU157      0.0001
    126  CD2      -34.0940    6.3190   12.8970 C.3   157  LEU157      0.0001
    127  N        -35.1370    6.4350    7.9520 N.am  158  VAL158     -0.1963
    128  CA       -36.4450    6.8690    7.4340 C.3   158  VAL158      0.1727
    129  C        -37.4820    6.9490    8.5750 C.2   158  VAL158      0.2616
    130  O        -37.6500    5.9850    9.3310 O.2   158  VAL158     -0.2715
    131  CB       -36.9140    5.9470    6.2510 C.3   158  VAL158      0.0290
    132  CG1      -38.4040    6.1210    5.9430 C.3   158  VAL158      0.0023
    133  CG2      -36.0650    6.2070    4.9990 C.3   158  VAL158      0.0023
    134  N        -38.1460    8.1000    8.7100 N.am  159  GLY159     -0.1955
    135  CA       -39.1640    8.2890    9.7510 C.3   159  GLY159      0.1869
    136  C        -39.9530    9.5790    9.6250 C.2   159  GLY159      0.2309
    137  O        -39.7320   10.3710    8.7060 O.2   159  GLY159     -0.2863
    138  N        -38.9830   12.3550   15.0620 N.3   164  TYR164     -0.1241
    139  CA       -38.3920   13.6250   14.6330 C.3   164  TYR164      0.1605
    140  C        -39.1830   14.8620   15.0530 C.2   164  TYR164      0.2264
    141  O        -40.4070   14.8270   15.1600 O.2   164  TYR164     -0.2867
    142  CB       -38.1850   13.6370   13.1140 C.3   164  TYR164      0.0534
    143  CG       -37.1110   12.6980   12.5910 C.ar  164  TYR164     -0.0201
    144  CD1      -35.7660   13.0850   12.5730 C.ar  164  TYR164     -0.0009
    145  CD2      -37.4410   11.4330   12.0910 C.ar  164  TYR164     -0.0009
    146  CE1      -34.7760   12.2430   12.0840 C.ar  164  TYR164      0.0417
    147  CE2      -36.4510   10.5760   11.5980 C.ar  164  TYR164      0.0417
    148  CZ       -35.1220   10.9950   11.5940 C.ar  164  TYR164      0.1957
    149  OH       -34.1310   10.1680   11.1110 O.3   164  TYR164     -0.2866
@<TRIPOS>BOND
     1    30    29    2
     2    29    28    1
     3    18    19    1
     4    20    21    2
     5    20    19    1
     6    19    22    1
     7    28    31    1
     8    28    27    1
     9    22    23    1
    10    12    11    2
    11    31    32    1
    12    23    24    1
    13    11    10    1
    14    32    33   ar
    15    32    34   ar
    16    33    35   ar
    17    24    26   ar
    18    24    25   ar
    19    10    13    1
    20    10     9    1
    21    77    76    2
    22    13    14    1
    23    34    36   ar
    24    14    15    1
    25    35    37   ar
    26    38    39    1
    27    76    75    1
    28    41    40    2
    29    16    15    1
    30    16    17    1
    31    36    37   ar
    32   118   116    1
    33    40    39    1
    34    39    42    1
    35    75    78    1
    36    75    74    1
    37    81    83   ar
    38    81    79   ar
    39    78    79    1
    40    83    84   ar
    41    79    80   ar
    42    42    43    1
    43   116   115    1
    44   133   131    1
    45    43    44    1
    46    43    45    1
    47   117   115    1
    48    84    82   ar
    49    80    82   ar
    50   115   112    1
    51   132   131    1
    52   131   128    1
    53    46    47    1
    54   112   111    1
    55   112   113    1
    56   128   127    1
    57   128   129    1
    58    47    48    1
    59    47    50    1
    60   109   107    1
    61   110   108    1
    62   127   121   am
    63   111   105   am
    64    48    49    2
    65    48    55   am
    66   113   119   am
    67   113   114    2
    68   107   108    1
    69   107   104    1
    70    55    56    1
    71    51    50    1
    72    51    52    1
    73     2     1    1
    74     2     3    1
    75     2     5    1
    76   119   120    1
    77   129   134   am
    78   129   130    2
    79   137   136    2
    80   134   135    1
    81   105   106    2
    82   105   104    1
    83   121   120    1
    84   121   122    2
    85     6     5    1
    86     6     7    1
    87    59    56    1
    88    59    60    1
    89    56    57    1
    90     3     4    2
    91    54    52   am
    92     8     7    1
    93   120   123    1
    94   104   103    1
    95    52    53    2
    96    62    60   ar
    97   136   135    1
    98    60    61   ar
    99    57    58    2
   100    57    63   am
   101    90    89    1
   102   123   124    1
   103   149   148    1
   104    63    64    1
   105   124   125    1
   106   124   126    1
   107   148   147   ar
   108   148   146   ar
   109   147   145   ar
   110    89    91    1
   111    89    86    1
   112   102   100    1
   113   146   144   ar
   114   145   143   ar
   115   144   143   ar
   116   143   142    1
   117    64    67    1
   118    64    65    1
   119    85    86    1
   120    70    72   ar
   121    70    68   ar
   122    86    87    1
   123   100   101    1
   124   100    99    2
   125   142   139    1
   126    67    68    1
   127    72    73   ar
   128    65    66    2
   129    68    69   ar
   130    99    98    1
   131    88    87    2
   132   139   140    1
   133   139   138    1
   134    73    71   ar
   135   140   141    2
   136    98    97    1
   137    69    71   ar
   138    97    96    1
   139    96    93    1
   140    92    93    1
   141    93    94    1
   142    94    95    2
