@<TRIPOS>MOLECULE
tmp/2j9yB00.pdb
 165 158 0 0 0
SMALL
GASTEIGER

@<TRIPOS>ATOM
      1  N         85.8290   11.7560    4.4870 N.3    84  ALA84      -0.1231
      2  CA        85.3030   11.5060    5.8350 C.3    84  ALA84       0.1694
      3  C         84.3520   10.3120    5.8770 C.2    84  ALA84       0.2592
      4  O         83.8780    9.8400    4.8450 O.2    84  ALA84      -0.2718
      5  CB        84.6000   12.7530    6.3540 C.3    84  ALA84       0.0304
      6  N         84.0670    9.8380    7.0850 N.am   85  HIS85      -0.1962
      7  CA        83.1900    8.6910    7.2930 C.3    85  HIS85       0.1787
      8  C         81.7530    8.9320    6.8320 C.2    85  HIS85       0.2620
      9  O         81.0000    7.9850    6.6360 O.2    85  HIS85      -0.2715
     10  CB        83.1370    8.3420    8.7820 C.3    85  HIS85       0.0785
     11  CG        82.3980    9.3560    9.5980 C.ar   85  HIS85       0.0821
     12  ND1       82.8910   10.6210    9.8330 N.ar   85  HIS85      -0.2267
     13  CD2       81.1750    9.3150   10.1730 C.ar   85  HIS85       0.1154
     14  CE1       81.9990   11.3180   10.5150 C.ar   85  HIS85       0.1986
     15  NE2       80.9490   10.5480   10.7330 N.ar   85  HIS85      -0.2212
     16  N         81.3820   10.1960    6.6820 N.am   86  LYS86      -0.1977
     17  CA        80.0250   10.5700    6.2890 C.3    86  LYS86       0.1596
     18  C         79.5320    9.8380    5.0520 C.2    86  LYS86       0.2287
     19  O         78.3570    9.4990    4.9380 O.2    86  LYS86      -0.2864
     20  CB        79.9580   12.0800    6.0510 C.3    86  LYS86       0.0298
     21  CG        80.2470   12.9100    7.2960 C.3    86  LYS86       0.0038
     22  CD        79.2120   12.6190    8.3770 C.3    86  LYS86       0.0206
     23  CE        79.3730   13.5560    9.5600 C.3    86  LYS86       0.1093
     24  NZ        78.2370   13.4380   10.5220 N.3    86  LYS86      -0.1314
     25  N         71.5340   18.5550    5.9300 N.3   108  GLU108     -0.1231
     26  CA        72.1270   19.6380    6.7010 C.3   108  GLU108      0.1699
     27  C         73.5980   19.2810    6.8790 C.2   108  GLU108      0.2593
     28  O         73.9630   18.1090    6.7890 O.2   108  GLU108     -0.2718
     29  CB        71.4510   19.7510    8.0730 C.3   108  GLU108      0.0402
     30  CG        71.8360   18.6540    9.0710 C.3   108  GLU108      0.1161
     31  CD        71.1940   17.3020    8.7780 C.2   108  GLU108      0.3649
     32  OE1       71.3020   16.8100    7.6380 O.co2 108  GLU108     -0.2457
     33  OE2       70.5900   16.7190    9.7050 O.co2 108  GLU108     -0.2457
     34  N         74.4470   20.2720    7.1280 N.am  109  THR109     -0.1939
     35  CA        75.8610   19.9780    7.3120 C.3   109  THR109      0.2028
     36  C         76.5950   21.0160    8.1590 C.2   109  THR109      0.2643
     37  O         76.2180   22.1820    8.1960 O.2   109  THR109     -0.2714
     38  CB        76.5750   19.8360    5.9430 C.3   109  THR109      0.1808
     39  OG1       77.8660   19.2530    6.1360 O.3   109  THR109     -0.2208
     40  CG2       76.7270   21.1900    5.2660 C.3   109  THR109      0.0379
     41  N         77.6430   20.5730    8.8480 N.am  110  GLY110     -0.1939
     42  CA        78.4260   21.4660    9.6830 C.3   110  GLY110      0.2014
     43  C         79.8170   21.6640    9.1160 C.2   110  GLY110      0.2639
     44  O         80.1650   22.7540    8.6610 O.2   110  GLY110     -0.2714
     45  N         80.6230   20.6070    9.1430 N.am  111  ALA111     -0.1963
     46  CA        81.9760   20.6710    8.6120 C.3   111  ALA111      0.1728
     47  C         81.9060   20.6050    7.0900 C.2   111  ALA111      0.2617
     48  O         82.9310   20.6630    6.4080 O.2   111  ALA111     -0.2715
     49  CB        82.8120   19.5100    9.1520 C.3   111  ALA111      0.0334
     50  N         80.6860   20.4810    6.5710 N.am  112  GLY112     -0.1940
     51  CA        80.4780   20.4120    5.1350 C.3   112  GLY112      0.2014
     52  C         80.7370   19.0370    4.5490 C.2   112  GLY112      0.2639
     53  O         80.5150   18.8140    3.3560 O.2   112  GLY112     -0.2714
     54  N         81.2080   18.1120    5.3770 N.am  113  ASN113     -0.1958
     55  CA        81.4900   16.7610    4.9120 C.3   113  ASN113      0.1819
     56  C         80.2230   15.9810    4.5980 C.2   113  ASN113      0.2621
     57  O         80.1660   15.2530    3.6060 O.2   113  ASN113     -0.2715
     58  CB        82.3290   15.9950    5.9380 C.3   113  ASN113      0.1195
     59  CG        83.8000   16.3700    5.8760 C.2   113  ASN113      0.2630
     60  OD1       84.3230   16.6890    4.8050 O.2   113  ASN113     -0.2716
     61  ND2       84.4780   16.3150    7.0140 N.am  113  ASN113     -0.0877
     62  N         79.2040   16.1160    5.4370 N.am  114  HIS114     -0.1973
     63  CA        77.9710   15.3960    5.1650 C.3   114  HIS114      0.1656
     64  C         77.2990   16.0100    3.9410 C.2   114  HIS114      0.2291
     65  O         76.6090   15.3220    3.1860 O.2   114  HIS114     -0.2864
     66  CB        77.0090   15.4510    6.3510 C.3   114  HIS114      0.0771
     67  CG        75.7070   14.7700    6.0750 C.ar  114  HIS114      0.0820
     68  ND1       75.6260   13.4240    5.7920 N.ar  114  HIS114     -0.2267
     69  CD2       74.4510   15.2590    5.9460 C.ar  114  HIS114      0.1154
     70  CE1       74.3770   13.1130    5.4950 C.ar  114  HIS114      0.1986
     71  NE2       73.6440   14.2090    5.5800 N.ar  114  HIS114     -0.2212
     72  N         75.7820   24.2480   12.8250 N.3   165  LEU165     -0.1245
     73  CA        75.0540   22.9870   12.6520 C.3   165  LEU165      0.1561
     74  C         73.6180   22.9730   13.1740 C.2   165  LEU165      0.2260
     75  O         72.6930   22.6080   12.4460 O.2   165  LEU165     -0.2867
     76  CB        75.8420   21.8350   13.2870 C.3   165  LEU165      0.0270
     77  CG        75.2640   20.4230   13.1240 C.3   165  LEU165      0.0019
     78  CD1       74.9030   20.1670   11.6630 C.3   165  LEU165      0.0001
     79  CD2       76.2870   19.3990   13.6190 C.3   165  LEU165      0.0001
     80  N         72.4620   13.5970    8.7330 N.3   188  GLY188     -0.1210
     81  CA        73.8650   13.2110    8.7040 C.3   188  GLY188      0.1956
     82  C         74.5750   12.7040    9.9390 C.2   188  GLY188      0.2612
     83  O         75.7950   12.5220    9.9220 O.2   188  GLY188     -0.2717
     84  N         73.8380   12.4700   11.0130 N.am  189  THR189     -0.1952
     85  CA        74.4660   11.9720   12.2210 C.3   189  THR189      0.1897
     86  C         73.5230   11.0160   12.9420 C.2   189  THR189      0.2313
     87  O         72.3520   10.8890   12.5710 O.2   189  THR189     -0.2863
     88  CB        74.8900   13.1380   13.1390 C.3   189  THR189      0.1794
     89  OG1       75.6390   12.6220   14.2420 O.3   189  THR189     -0.2208
     90  CG2       73.6780   13.8920   13.6510 C.3   189  THR189      0.0378
     91  N         85.6230   10.9400   18.2880 N.3   229  CYS229     -0.1221
     92  CA        85.0510   12.2300   18.6520 C.3   229  CYS229      0.1808
     93  C         83.5400   12.0900   18.5310 C.2   229  CYS229      0.2601
     94  O         83.0500   11.2260   17.8050 O.2   229  CYS229     -0.2717
     95  CB        85.5620   13.3530   17.7410 C.3   229  CYS229      0.0970
     96  SG        85.1110   13.2340   15.9950 S.3   229  CYS229     -0.0800
     97  N         82.8080   12.9240   19.2580 N.am  230  VAL230     -0.1965
     98  CA        81.3510   12.8640   19.2460 C.3   230  VAL230      0.1727
     99  C         80.7190   14.2310   19.0310 C.2   230  VAL230      0.2617
    100  O         80.7630   15.0870   19.9170 O.2   230  VAL230     -0.2715
    101  CB        80.7970   12.3080   20.5780 C.3   230  VAL230      0.0290
    102  CG1       79.2560   12.2690   20.5360 C.3   230  VAL230      0.0023
    103  CG2       81.3450   10.9180   20.8430 C.3   230  VAL230      0.0023
    104  N         80.1370   14.4290   17.8510 N.am  231  GLY231     -0.1940
    105  CA        79.4460   15.6720   17.5590 C.3   231  GLY231      0.2014
    106  C         77.9900   15.2820   17.7240 C.2   231  GLY231      0.2639
    107  O         77.3620   15.6030   18.7300 O.2   231  GLY231     -0.2714
    108  N         77.4660   14.5720   16.7310 N.am  232  GLY232     -0.1939
    109  CA        76.1030   14.0760   16.7880 C.3   232  GLY232      0.2014
    110  C         76.2020   12.6240   17.2360 C.2   232  GLY232      0.2639
    111  O         75.2750   12.0730   17.8400 O.2   232  GLY232     -0.2714
    112  N         77.3390   12.0020   16.9180 N.am  233  GLY233     -0.1939
    113  CA        77.5920   10.6230   17.3110 C.3   233  GLY233      0.2014
    114  C         77.7150    9.5350   16.2500 C.2   233  GLY233      0.2640
    115  O         77.8750    8.3610   16.6050 O.2   233  GLY233     -0.2714
    116  N         77.6790    9.8870   14.9660 N.am  234  SER234     -0.1935
    117  CA        77.7480    8.8510   13.9320 C.3   234  SER234      0.2055
    118  C         79.0630    8.0990   13.7900 C.2   234  SER234      0.2643
    119  O         79.0580    6.8720   13.7400 O.2   234  SER234     -0.2714
    120  CB        77.3380    9.4030   12.5560 C.3   234  SER234      0.2130
    121  OG        78.2730   10.3280   12.0360 O.3   234  SER234     -0.2179
    122  N         80.1920    8.7980   13.7110 N.am  235  ASN235     -0.1971
    123  CA        81.4350    8.0560   13.5480 C.3   235  ASN235      0.1688
    124  C         81.7450    7.2490   14.8020 C.2   235  ASN235      0.2292
    125  O         82.2390    6.1370   14.7150 O.2   235  ASN235     -0.2864
    126  CB        82.6150    8.9800   13.1660 C.3   235  ASN235      0.1181
    127  CG        83.2980    9.6260   14.3620 C.2   235  ASN235      0.2629
    128  OD1       84.3770    9.0050   14.8280 O.2   235  ASN235     -0.2716
    129  ND2       82.8700   10.6690   14.8530 N.am  235  ASN235     -0.0877
    130  N         82.3300   20.5330   12.6890 N.3   302  GLY302     -0.1210
    131  CA        81.6230   19.2680   12.7820 C.3   302  GLY302      0.1956
    132  C         81.2270   18.8290   14.1790 C.2   302  GLY302      0.2611
    133  O         80.4230   17.9090   14.3350 O.2   302  GLY302     -0.2717
    134  N         81.7830   19.4730   15.2010 N.am  303  LEU303     -0.1979
    135  CA        81.4550   19.1150   16.5780 C.3   303  LEU303      0.1596
    136  C         80.6490   20.2080   17.2620 C.2   303  LEU303      0.2287
    137  O         80.2390   20.0560   18.4140 O.2   303  LEU303     -0.2864
    138  CB        82.7360   18.8580   17.3850 C.3   303  LEU303      0.0297
    139  CG        83.6840   17.7730   16.8660 C.3   303  LEU303      0.0022
    140  CD1       84.8750   17.6270   17.8220 C.3   303  LEU303      0.0001
    141  CD2       82.9420   16.4540   16.7460 C.3   303  LEU303      0.0001
    142  N         91.2150   15.7850   10.2930 N.3   347  ALA347     -0.1245
    143  CA        90.2080   16.8200   10.4280 C.3   347  ALA347      0.1562
    144  C         90.3260   17.2780   11.8830 C.2   347  ALA347      0.2260
    145  O         90.7540   16.5020   12.7430 O.2   347  ALA347     -0.2867
    146  CB        88.8180   16.2460   10.1810 C.3   347  ALA347      0.0290
    147  N         87.9890   17.6980   13.8150 N.3   349  GLU349     -0.1245
    148  CA        87.0380   16.8920   14.5800 C.3   349  GLU349      0.1567
    149  C         87.7690   15.6640   15.1210 C.2   349  GLU349      0.2260
    150  O         87.7660   15.3990   16.3200 O.2   349  GLU349     -0.2867
    151  CB        85.8740   16.4060   13.7040 C.3   349  GLU349      0.0388
    152  CG        84.8870   17.4700   13.2410 C.3   349  GLU349      0.1160
    153  CD        85.4710   18.3950   12.1890 C.2   349  GLU349      0.3649
    154  OE1       86.3240   17.9310   11.4080 O.co2 349  GLU349     -0.2457
    155  OE2       85.0620   19.5750   12.1340 O.co2 349  GLU349     -0.2457
    156  N         88.1780    9.9740   11.7530 N.3   376  SER376     -0.1202
    157  CA        86.9580   10.2010   10.9830 C.3   376  SER376      0.2020
    158  C         87.0780   10.9440    9.6570 C.2   376  SER376      0.2619
    159  O         86.2350   10.7620    8.7820 O.2   376  SER376     -0.2717
    160  CB        85.9120   10.8840   11.8630 C.3   376  SER376      0.2103
    161  OG        86.3830   12.1220   12.3560 O.3   376  SER376     -0.2182
    162  N         88.1080   11.7690    9.4960 N.am  377  GLY377     -0.1956
    163  CA        88.2580   12.4920    8.2420 C.3   377  GLY377      0.1869
    164  C         89.5960   13.1770    8.0720 C.2   377  GLY377      0.2309
    165  O         90.3640   13.2900    9.0290 O.2   377  GLY377     -0.2863
@<TRIPOS>BOND
     1    65    64    2
     2    53    52    2
     3    57    56    2
     4    64    63    1
     5     1     2    1
     6    52    51    1
     7    52    54   am
     8    56    55    1
     9    56    62   am
    10    60    59    2
    11     4     3    2
    12    55    54    1
    13    55    58    1
    14    19    18    2
    15    18    17    1
    16    51    50    1
    17    63    62    1
    18    63    66    1
    19    40    38    1
    20    70    71   ar
    21    70    68   ar
    22    71    69   ar
    23    68    67   ar
    24     2     3    1
    25     2     5    1
    26    59    58    1
    27    59    61   am
    28     3     6   am
    29    25    26    1
    30    38    39    1
    31    38    35    1
    32    69    67   ar
    33    20    17    1
    34    20    21    1
    35    67    66    1
    36    17    16    1
    37    48    47    2
    38    50    47   am
    39     9     8    2
    40    16     8   am
    41    26    27    1
    42    26    29    1
    43    28    27    2
    44     8     7    1
    45    27    34   am
    46     6     7    1
    47    47    46    1
    48    34    35    1
    49     7    10    1
    50    21    22    1
    51    35    36    1
    52    32    31   ar
    53   164   163    1
    54   164   165    2
    55    29    30    1
    56    36    37    2
    57    36    41   am
    58   163   162    1
    59    22    23    1
    60    46    45    1
    61    46    49    1
    62    44    43    2
    63    81    80    1
    64    81    82    1
    65    31    30    1
    66    31    33   ar
    67   159   158    2
    68    10    11    1
    69    41    42    1
    70    43    45   am
    71    43    42    1
    72   162   158   am
    73    23    24    1
    74    11    12   ar
    75    11    13   ar
    76   158   157    1
    77    12    14   ar
    78    83    82    2
    79    82    84   am
    80    13    15   ar
    81   146   143    1
    82   142   143    1
    83   143   144    1
    84    14    15   ar
    85   157   156    1
    86   157   160    1
    87    84    85    1
    88   154   153   ar
    89    78    77    1
    90   160   161    1
    91   144   145    2
    92   121   120    1
    93   155   153   ar
    94   153   152    1
    95    85    86    1
    96    85    88    1
    97    75    74    2
    98   120   117    1
    99    87    86    2
   100    73    72    1
   101    73    74    1
   102    73    76    1
   103   130   131    1
   104   131   132    1
   105    77    76    1
   106    77    79    1
   107    88    90    1
   108    88    89    1
   109   126   123    1
   110   126   127    1
   111   152   151    1
   112   123   122    1
   113   123   124    1
   114   151   148    1
   115   122   118   am
   116   119   118    2
   117   118   117    1
   118   147   148    1
   119   117   116    1
   120   132   133    2
   121   132   134   am
   122   127   128    2
   123   127   129   am
   124   148   149    1
   125   125   124    2
   126   116   114   am
   127   149   150    2
   128   134   135    1
   129    96    95    1
   130   114   115    2
   131   114   113    1
   132   135   136    1
   133   135   138    1
   134   108   109    1
   135   108   106   am
   136   141   139    1
   137   109   110    1
   138   139   138    1
   139   139   140    1
   140   112   110   am
   141   112   113    1
   142   110   111    2
   143   136   137    2
   144   105   106    1
   145   105   104    1
   146   106   107    2
   147    95    92    1
   148    94    93    2
   149   104    99   am
   150    91    92    1
   151    93    92    1
   152    93    97   am
   153    99    98    1
   154    99   100    2
   155    98    97    1
   156    98   101    1
   157   102   101    1
   158   101   103    1
