@<TRIPOS>MOLECULE
tmp/2ja1A01.pdb
 115 109 0 0 0
SMALL
GASTEIGER

@<TRIPOS>ATOM
      1  N          4.4600   15.3230   13.2360 N.3    19  MET19      -0.1245
      2  CA         4.2660   14.8140   14.5710 C.3    19  MET19       0.1570
      3  C          2.9000   14.1410   14.6400 C.2    19  MET19       0.2261
      4  O          1.9590   14.5760   13.9770 O.2    19  MET19      -0.2867
      5  CB         4.3720   15.9360   15.5780 C.3    19  MET19       0.0387
      6  CG         5.7980   16.4030   15.7890 C.3    19  MET19       0.0595
      7  SD         5.9350   17.3500   17.3190 S.3    19  MET19      -0.1393
      8  CE         5.4140   16.0880   18.5090 C.3    19  MET19       0.0692
      9  N         11.2910   13.9070   24.9380 N.3    51  ARG51      -0.1245
     10  CA         9.8670   14.2670   25.1430 C.3    51  ARG51       0.1563
     11  C          9.1360   13.3250   26.1100 C.2    51  ARG51       0.2260
     12  O          8.5060   13.7810   27.0750 O.2    51  ARG51      -0.2867
     13  CB         9.0870   14.3860   23.8210 C.3    51  ARG51       0.0307
     14  CG         9.8630   15.0140   22.6590 C.3    51  ARG51       0.0489
     15  CD         8.9660   15.4330   21.4480 C.3    51  ARG51       0.2205
     16  NE         8.0810   14.3920   20.8810 N.pl3  51  ARG51      -0.0865
     17  CZ         6.7980   14.1980   21.2250 C.cat  51  ARG51       0.5346
     18  NH1        6.2220   14.9560   22.1630 N.pl3  51  ARG51       0.1354
     19  NH2        6.0840   13.2400   20.6380 N.pl3  51  ARG51       0.1354
     20  N         17.0640   14.7210   13.8860 N.3    94  PHE94      -0.1241
     21  CA        17.9370   15.3390   14.8880 C.3    94  PHE94       0.1605
     22  C         19.3850   14.8700   14.8190 C.2    94  PHE94       0.2264
     23  O         20.1870   15.2510   15.6650 O.2    94  PHE94      -0.2867
     24  CB        17.4340   15.0710   16.3080 C.3    94  PHE94       0.0534
     25  CG        16.1910   15.8250   16.6820 C.ar   94  PHE94      -0.0203
     26  CD1       15.9500   17.1070   16.1930 C.ar   94  PHE94      -0.0042
     27  CD2       15.2730   15.2610   17.5730 C.ar   94  PHE94      -0.0042
     28  CE1       14.7950   17.8070   16.5620 C.ar   94  PHE94      -0.0003
     29  CE2       14.1180   15.9470   17.9520 C.ar   94  PHE94      -0.0003
     30  CZ        13.8760   17.2240   17.4440 C.ar   94  PHE94      -0.0000
     31  N         10.8560   13.2490   11.1170 N.3   118  LEU118     -0.1245
     32  CA        10.0160   14.2800   10.5140 C.3   118  LEU118      0.1561
     33  C         10.4510   14.5730    9.0810 C.2   118  LEU118      0.2260
     34  O         11.6430   14.7570    8.8170 O.2   118  LEU118     -0.2867
     35  CB        10.1050   15.5640   11.3470 C.3   118  LEU118      0.0270
     36  CG         9.4500   15.5990   12.7380 C.3   118  LEU118      0.0019
     37  CD1        9.9980   16.7540   13.5130 C.3   118  LEU118      0.0001
     38  CD2        7.9320   15.7030   12.6810 C.3   118  LEU118      0.0001
     39  N          9.2320   17.3130    7.6300 N.3   120  GLN120     -0.1231
     40  CA         9.2550   18.7860    7.6620 C.3   120  GLN120      0.1698
     41  C          9.2750   19.3380    9.0870 C.2   120  GLN120      0.2592
     42  O          8.6920   18.7260   10.0020 O.2   120  GLN120     -0.2718
     43  CB         8.0260   19.3730    6.9450 C.3   120  GLN120      0.0381
     44  CG         7.4330   18.5150    5.8430 C.3   120  GLN120      0.0905
     45  CD         6.1460   19.0770    5.2820 C.2   120  GLN120      0.2608
     46  OE1        5.7530   20.2080    5.5940 O.2   120  GLN120     -0.2717
     47  NE2        5.4820   18.2920    4.4310 N.am  120  GLN120     -0.0878
     48  N          9.9170   20.5000    9.2690 N.am  121  ASP121     -0.1960
     49  CA         9.7950   21.2410   10.5310 C.3   121  ASP121      0.1840
     50  C          8.4470   21.9660   10.6140 C.2   121  ASP121      0.2622
     51  O          7.6210   21.8590    9.6920 O.2   121  ASP121     -0.2715
     52  CB        10.9890   22.1790   10.7840 C.3   121  ASP121      0.1450
     53  CG        11.0370   23.3600    9.8380 C.2   121  ASP121      0.3671
     54  OD1       10.0680   23.5940    9.0870 O.co2 121  ASP121     -0.2456
     55  OD2       12.0660   24.0700    9.8460 O.co2 121  ASP121     -0.2456
     56  N          8.2170   22.6870   11.7140 N.am  122  PHE122     -0.1974
     57  CA         6.9360   23.3570   11.9390 C.3   122  PHE122      0.1639
     58  C          6.6360   24.4530   10.9190 C.2   122  PHE122      0.2290
     59  O          5.5190   24.9690   10.8750 O.2   122  PHE122     -0.2864
     60  CB         6.8410   23.9160   13.3750 C.3   122  PHE122      0.0560
     61  CG         7.6720   25.1580   13.6280 C.ar  122  PHE122     -0.0200
     62  CD1        7.1260   26.4330   13.4310 C.ar  122  PHE122     -0.0042
     63  CD2        8.9830   25.0580   14.0920 C.ar  122  PHE122     -0.0042
     64  CE1        7.8820   27.5860   13.6720 C.ar  122  PHE122     -0.0003
     65  CE2        9.7520   26.2110   14.3320 C.ar  122  PHE122     -0.0003
     66  CZ         9.1970   27.4740   14.1220 C.ar  122  PHE122     -0.0000
     67  N         13.1510   18.7550    6.5240 N.3   127  PHE127     -0.1241
     68  CA        13.8030   18.8360    7.8290 C.3   127  PHE127      0.1605
     69  C         15.3000   18.6830    7.8380 C.2   127  PHE127      0.2264
     70  O         16.0380   19.6700    7.7340 O.2   127  PHE127     -0.2867
     71  CB        13.1630   17.9540    8.9040 C.3   127  PHE127      0.0534
     72  CG        13.3840   18.4640   10.3150 C.ar  127  PHE127     -0.0203
     73  CD1       12.3030   18.7060   11.1580 C.ar  127  PHE127     -0.0042
     74  CD2       14.6800   18.7100   10.8020 C.ar  127  PHE127     -0.0042
     75  CE1       12.5040   19.1850   12.4640 C.ar  127  PHE127     -0.0003
     76  CE2       14.8950   19.1890   12.1070 C.ar  127  PHE127     -0.0003
     77  CZ        13.8040   19.4310   12.9350 C.ar  127  PHE127     -0.0000
     78  N          3.1640   19.7160   10.7480 N.3   157  THR157     -0.1218
     79  CA         3.1430   19.9800   12.1900 C.3   157  THR157      0.1862
     80  C          2.9640   21.4760   12.4170 C.2   157  THR157      0.2287
     81  O          3.7420   22.2940   11.9120 O.2   157  THR157     -0.2866
     82  CB         4.4330   19.5220   12.8760 C.3   157  THR157      0.1770
     83  OG1        4.6840   18.1550   12.5220 O.3   157  THR157     -0.2211
     84  CG2        4.3180   19.6430   14.3910 C.3   157  THR157      0.0375
     85  N          3.0890   24.4020   15.0520 N.3   159  ARG159     -0.1245
     86  CA         3.5860   24.8220   16.3520 C.3   159  ARG159      0.1563
     87  C          2.7220   25.9760   16.8030 C.2   159  ARG159      0.2260
     88  O          2.4850   26.9110   16.0420 O.2   159  ARG159     -0.2867
     89  CB         5.0450   25.2520   16.2670 C.3   159  ARG159      0.0307
     90  CG         5.7350   25.3760   17.6030 C.3   159  ARG159      0.0489
     91  CD         7.1630   25.8290   17.3990 C.3   159  ARG159      0.2205
     92  NE         7.8750   25.9790   18.6630 N.pl3 159  ARG159     -0.0865
     93  CZ         9.0030   26.6670   18.8340 C.cat 159  ARG159      0.5346
     94  NH1        9.5970   27.2930   17.8240 N.pl3 159  ARG159      0.1354
     95  NH2        9.5390   26.7290   20.0430 N.pl3 159  ARG159      0.1354
     96  N         13.8750   26.9210   18.5960 N.3   172  ILE172     -0.1245
     97  CA        13.3320   25.6010   18.8720 C.3   172  ILE172      0.1561
     98  C         13.1330   25.3960   20.3800 C.2   172  ILE172      0.2260
     99  O         12.2090   24.7130   20.8080 O.2   172  ILE172     -0.2867
    100  CB        14.1770   24.4810   18.2200 C.3   172  ILE172      0.0252
    101  CG1       14.4580   24.8350   16.7430 C.3   172  ILE172      0.0019
    102  CG2       13.4470   23.1250   18.3330 C.3   172  ILE172      0.0019
    103  CD1       15.4980   23.9270   16.0130 C.3   172  ILE172      0.0001
    104  N          2.0950   21.2320   19.9060 N.3   181  TYR181     -0.1241
    105  CA         2.2700   20.7760   18.5370 C.3   181  TYR181      0.1605
    106  C          1.0940   19.9170   18.1400 C.2   181  TYR181      0.2264
    107  O          0.7170   18.9980   18.8660 O.2   181  TYR181     -0.2867
    108  CB         3.5470   19.9570   18.4400 C.3   181  TYR181      0.0534
    109  CG         4.7800   20.7710   18.6950 C.ar  181  TYR181     -0.0201
    110  CD1        5.5510   21.2400   17.6410 C.ar  181  TYR181     -0.0009
    111  CD2        5.1680   21.0970   19.9950 C.ar  181  TYR181     -0.0009
    112  CE1        6.6850   21.9950   17.8730 C.ar  181  TYR181      0.0417
    113  CE2        6.2970   21.8600   20.2360 C.ar  181  TYR181      0.0417
    114  CZ         7.0530   22.3010   19.1680 C.ar  181  TYR181      0.1957
    115  OH         8.1730   23.0710   19.3930 O.3   181  TYR181     -0.2866
@<TRIPOS>BOND
     1    47    45   am
     2    45    46    2
     3    45    44    1
     4    44    43    1
     5    67    68    1
     6    43    40    1
     7    39    40    1
     8    40    41    1
     9    70    69    2
    10    68    69    1
    11    68    71    1
    12    34    33    2
    13    71    72    1
    14    33    32    1
    15    41    48   am
    16    41    42    2
    17    54    53   ar
    18    48    49    1
    19    51    50    2
    20    53    55   ar
    21    53    52    1
    22    72    74   ar
    23    72    73   ar
    24    32    31    1
    25    32    35    1
    26    49    50    1
    27    49    52    1
    28    50    56   am
    29    78    79    1
    30    74    76   ar
    31    59    58    2
    32    58    57    1
    33    73    75   ar
    34    35    36    1
    35    56    57    1
    36    81    80    2
    37    57    60    1
    38    76    77   ar
    39    79    80    1
    40    79    82    1
    41    75    77   ar
    42    83    82    1
    43    38    36    1
    44    36    37    1
    45    82    84    1
    46     1     2    1
    47    60    61    1
    48    62    61   ar
    49    62    64   ar
    50    61    63   ar
    51    64    66   ar
    52    20    21    1
    53     4     3    2
    54    63    65   ar
    55    66    65   ar
    56     2     3    1
    57     2     5    1
    58    22    21    1
    59    22    23    2
    60    21    24    1
    61    85    86    1
    62     5     6    1
    63     6     7    1
    64   103   101    1
    65    88    87    2
    66    26    28   ar
    67    26    25   ar
    68    89    86    1
    69    89    90    1
    70    24    25    1
    71    86    87    1
    72    28    30   ar
    73    25    27   ar
    74   101   100    1
    75     7     8    1
    76    91    90    1
    77    91    92    1
    78    30    29   ar
    79    27    29   ar
    80   110   112   ar
    81   110   109   ar
    82    94    93    1
    83   112   114   ar
    84   106   105    1
    85   106   107    2
    86   100   102    1
    87   100    97    1
    88   108   105    1
    89   108   109    1
    90   105   104    1
    91    96    97    1
    92    92    93    2
    93   109   111   ar
    94    93    95    1
    95    97    98    1
    96   114   115    1
    97   114   113   ar
    98   111   113   ar
    99    98    99    2
   100    19    17    1
   101    16    17    2
   102    16    15    1
   103    17    18    1
   104    15    14    1
   105    14    13    1
   106    13    10    1
   107     9    10    1
   108    10    11    1
   109    11    12    2
