@<TRIPOS>MOLECULE
tmp/2ja1A00.pdb
 160 157 0 0 0
SMALL
GASTEIGER

@<TRIPOS>ATOM
      1  N          4.4600   15.3230   13.2360 N.3    19  MET19      -0.1230
      2  CA         4.2660   14.8140   14.5710 C.3    19  MET19       0.1702
      3  C          2.9000   14.1410   14.6400 C.2    19  MET19       0.2592
      4  O          1.9590   14.5760   13.9770 O.2    19  MET19      -0.2718
      5  CB         4.3720   15.9360   15.5780 C.3    19  MET19       0.0401
      6  CG         5.7980   16.4030   15.7890 C.3    19  MET19       0.0596
      7  SD         5.9350   17.3500   17.3190 S.3    19  MET19      -0.1393
      8  CE         5.4140   16.0880   18.5090 C.3    19  MET19       0.0692
      9  N          2.8190   13.0660   15.4180 N.am   20  PHE20      -0.1962
     10  CA         1.5810   12.3090   15.6500 C.3    20  PHE20       0.1771
     11  C          1.0510   11.5630   14.4220 C.2    20  PHE20       0.2620
     12  O         -0.0600   11.0020   14.4620 O.2    20  PHE20      -0.2715
     13  CB         0.4690   13.1750   16.2590 C.3    20  PHE20       0.0574
     14  CG         0.8590   13.8750   17.5310 C.ar   20  PHE20      -0.0200
     15  CD1        1.1720   15.2330   17.5260 C.ar   20  PHE20      -0.0042
     16  CD2        0.8930   13.1920   18.7400 C.ar   20  PHE20      -0.0042
     17  CE1        1.5240   15.8910   18.7200 C.ar   20  PHE20      -0.0003
     18  CE2        1.2450   13.8430   19.9190 C.ar   20  PHE20      -0.0003
     19  CZ         1.5610   15.1920   19.9080 C.ar   20  PHE20      -0.0000
     20  N          1.8150   11.5310   13.3320 N.am   21  SER21      -0.1936
     21  CA         1.3940   10.7140   12.1910 C.3    21  SER21       0.2055
     22  C          1.5590    9.1970   12.4380 C.2    21  SER21       0.2644
     23  O          0.9820    8.3750   11.7150 O.2    21  SER21      -0.2714
     24  CB         2.1010   11.1500   10.9140 C.3    21  SER21       0.2130
     25  OG         3.5040   11.0880   11.0810 O.3    21  SER21      -0.2179
     26  N          2.3420    8.8410   13.4570 N.am   22  GLY22      -0.1939
     27  CA         2.5520    7.4470   13.8460 C.3    22  GLY22       0.2014
     28  C          3.9290    6.8650   13.5490 C.2    22  GLY22       0.2639
     29  O          4.0820    5.6500   13.5270 O.2    22  GLY22      -0.2714
     30  N          4.9280    7.7120   13.3170 N.am   23  LYS23      -0.1963
     31  CA         6.2740    7.2490   12.9830 C.3    23  LYS23       0.1728
     32  C          6.8270    6.2530   13.9870 C.2    23  LYS23       0.2617
     33  O          7.3460    5.2130   13.6010 O.2    23  LYS23      -0.2715
     34  CB         7.2420    8.4160   12.8460 C.3    23  LYS23       0.0311
     35  CG         6.7950    9.4940   11.8690 C.3    23  LYS23       0.0038
     36  CD         7.8970   10.5010   11.6190 C.3    23  LYS23       0.0206
     37  CE         8.1250   11.3790   12.8480 C.3    23  LYS23       0.1093
     38  NZ         6.9560   12.2680   13.0940 N.3    23  LYS23      -0.1314
     39  N          6.7290    6.5720   15.2660 N.am   24  SER24      -0.1936
     40  CA         7.2480    5.6590   16.2710 C.3    24  SER24       0.2055
     41  C          6.3430    4.4620   16.4810 C.2    24  SER24       0.2642
     42  O          6.8300    3.3690   16.7510 O.2    24  SER24      -0.2714
     43  CB         7.4870    6.3580   17.5960 C.3    24  SER24       0.2130
     44  OG         8.5680    7.2710   17.5210 O.3    24  SER24      -0.2179
     45  N          5.0400    4.6440   16.3700 N.am   25  GLU25      -0.1976
     46  CA         4.1020    3.5250   16.3920 C.3    25  GLU25       0.1602
     47  C          4.5270    2.5050   15.3270 C.2    25  GLU25       0.2287
     48  O          4.5980    1.2950   15.5890 O.2    25  GLU25      -0.2864
     49  CB         2.6950    4.0530   16.1340 C.3    25  GLU25       0.0415
     50  CG         1.6150    3.0290   16.0280 C.3    25  GLU25       0.1163
     51  CD         0.2360    3.6560   15.8560 C.2    25  GLU25       0.3649
     52  OE1        0.0260    4.4980   14.9440 O.co2  25  GLU25      -0.2457
     53  OE2       -0.6590    3.3010   16.6430 O.co2  25  GLU25      -0.2457
     54  N         16.3740   14.1200   21.9830 N.3    49  ASP49      -0.1239
     55  CA        14.9760   13.6500   22.0460 C.3    49  ASP49       0.1674
     56  C         14.5550   13.0760   23.4100 C.2    49  ASP49       0.2266
     57  O         14.6420   11.8680   23.6370 O.2    49  ASP49      -0.2867
     58  CB        14.7210   12.6150   20.9390 C.3    49  ASP49       0.1410
     59  CG        13.3510   11.9250   21.0530 C.2    49  ASP49       0.3668
     60  OD1       12.4050   12.5030   21.6620 O.co2  49  ASP49      -0.2456
     61  OD2       13.2370   10.7950   20.5170 O.co2  49  ASP49      -0.2456
     62  N         11.2910   13.9070   24.9380 N.3    51  ARG51      -0.1231
     63  CA         9.8670   14.2670   25.1430 C.3    51  ARG51       0.1694
     64  C          9.1360   13.3250   26.1100 C.2    51  ARG51       0.2592
     65  O          8.5060   13.7810   27.0750 O.2    51  ARG51      -0.2718
     66  CB         9.0870   14.3860   23.8210 C.3    51  ARG51       0.0321
     67  CG         9.8630   15.0140   22.6590 C.3    51  ARG51       0.0489
     68  CD         8.9660   15.4330   21.4480 C.3    51  ARG51       0.2205
     69  NE         8.0810   14.3920   20.8810 N.pl3  51  ARG51      -0.0865
     70  CZ         6.7980   14.1980   21.2250 C.cat  51  ARG51       0.5346
     71  NH1        6.2220   14.9560   22.1630 N.pl3  51  ARG51       0.1354
     72  NH2        6.0840   13.2400   20.6380 N.pl3  51  ARG51       0.1354
     73  N          9.2220   12.0180   25.8580 N.am   52  TYR52      -0.1976
     74  CA         8.5840   11.0400   26.7450 C.3    52  TYR52       0.1639
     75  C          9.5910   10.2560   27.5930 C.2    52  TYR52       0.2290
     76  O          9.2310    9.7390   28.6500 O.2    52  TYR52      -0.2864
     77  CB         7.6950   10.0610   25.9720 C.3    52  TYR52       0.0560
     78  CG         6.6350   10.6540   25.0400 C.ar   52  TYR52      -0.0198
     79  CD1        6.6920   10.4150   23.6610 C.ar   52  TYR52      -0.0009
     80  CD2        5.5560   11.4000   25.5310 C.ar   52  TYR52      -0.0009
     81  CE1        5.7280   10.9180   22.7950 C.ar   52  TYR52       0.0417
     82  CE2        4.5750   11.9180   24.6570 C.ar   52  TYR52       0.0417
     83  CZ         4.6680   11.6700   23.2850 C.ar   52  TYR52       0.1957
     84  OH         3.7140   12.1540   22.3950 O.3    52  TYR52      -0.2866
     85  N          9.3900    6.0720   22.6160 N.3    58  VAL58      -0.1231
     86  CA         7.9960    6.0060   23.0450 C.3    58  VAL58       0.1692
     87  C          7.0320    6.5820   21.9970 C.2    58  VAL58       0.2593
     88  O          7.2580    7.6680   21.4780 O.2    58  VAL58      -0.2718
     89  CB         7.7840    6.6960   24.4220 C.3    58  VAL58       0.0266
     90  CG1        6.3460    6.5570   24.8800 C.3    58  VAL58       0.0020
     91  CG2        8.7290    6.1160   25.4780 C.3    58  VAL58       0.0020
     92  N          5.9700    5.8360   21.6900 N.am   59  SER59      -0.1938
     93  CA         4.8780    6.3190   20.8480 C.3    59  SER59       0.2055
     94  C          3.7470    6.8950   21.7070 C.2    59  SER59       0.2643
     95  O          3.4360    6.3660   22.7750 O.2    59  SER59      -0.2714
     96  CB         4.3340    5.1910   19.9710 C.3    59  SER59       0.2130
     97  OG         3.0500    5.4950   19.4530 O.3    59  SER59      -0.2179
     98  N          3.1290    7.9690   21.2220 N.am   60  HIS60      -0.1959
     99  CA         1.9990    8.5690   21.9040 C.3    60  HIS60       0.1787
    100  C          0.8150    7.5920   22.0230 C.2    60  HIS60       0.2620
    101  O         -0.1370    7.8740   22.7510 O.2    60  HIS60      -0.2715
    102  CB         1.5940    9.9380   21.2820 C.3    60  HIS60       0.0785
    103  CG         0.4740   10.6260   22.0130 C.ar   60  HIS60       0.0821
    104  ND1       -0.6700   11.0760   21.3800 N.ar   60  HIS60      -0.2267
    105  CD2        0.2920   10.8800   23.3370 C.ar   60  HIS60       0.1154
    106  CE1       -1.4980   11.5920   22.2760 C.ar   60  HIS60       0.1986
    107  NE2       -0.9390   11.4840   23.4700 N.ar   60  HIS60      -0.2212
    108  N          0.8780    6.4360   21.3460 N.am   61  ASN61      -0.1972
    109  CA        -0.1350    5.3880   21.5530 C.3    61  ASN61       0.1688
    110  C          0.0670    4.6740   22.8750 C.2    61  ASN61       0.2292
    111  O         -0.7690    3.8690   23.2730 O.2    61  ASN61      -0.2864
    112  CB        -0.2390    4.3940   20.3830 C.3    61  ASN61       0.1181
    113  CG         0.9480    3.4030   20.2950 C.2    61  ASN61       0.2629
    114  OD1        1.7430    3.2430   21.2290 O.2    61  ASN61      -0.2716
    115  ND2        1.0530    2.7260   19.1510 N.am   61  ASN61      -0.0877
    116  N         15.0330    6.1560   15.6120 N.3    90  ASP90      -0.1225
    117  CA        13.9050    7.0910   15.7180 C.3    90  ASP90       0.1805
    118  C         14.3820    8.5400   15.7490 C.2    90  ASP90       0.2597
    119  O         15.5170    8.8160   16.1170 O.2    90  ASP90      -0.2718
    120  CB        13.0620    6.7870   16.9540 C.3    90  ASP90       0.1424
    121  CG        11.6170    7.3100   16.8430 C.2    90  ASP90       0.3668
    122  OD1       11.2370    7.9500   15.8360 O.co2  90  ASP90      -0.2456
    123  OD2       10.8450    7.0790   17.7940 O.co2  90  ASP90      -0.2456
    124  N         13.5080    9.4570   15.3530 N.am   91  GLU91      -0.1979
    125  CA        13.8140   10.8850   15.3040 C.3    91  GLU91       0.1602
    126  C         15.1150   11.2160   14.5240 C.2    91  GLU91       0.2287
    127  O         15.9250   12.0430   14.9730 O.2    91  GLU91      -0.2864
    128  CB        13.8070   11.4910   16.7370 C.3    91  GLU91       0.0415
    129  CG        12.3990   11.6850   17.3850 C.3    91  GLU91       0.1163
    130  CD        11.4010   12.4970   16.4930 C.2    91  GLU91       0.3649
    131  OE1       11.3020   13.7390   16.6850 O.co2  91  GLU91      -0.2457
    132  OE2       10.7200   11.8900   15.6000 O.co2  91  GLU91      -0.2457
    133  N          0.3330    9.9200    7.4730 N.3   144  GLN144     -0.1231
    134  CA        -0.4870   11.1280    7.6920 C.3   144  GLN144      0.1698
    135  C         -1.3000   11.0180    8.9580 C.2   144  GLN144      0.2592
    136  O         -1.9540    9.9960    9.2120 O.2   144  GLN144     -0.2718
    137  CB        -1.4330   11.4020    6.5260 C.3   144  GLN144      0.0381
    138  CG        -0.7570   11.5620    5.2000 C.3   144  GLN144      0.0905
    139  CD        -1.6680   12.1920    4.1690 C.2   144  GLN144      0.2608
    140  OE1       -2.5140   11.5220    3.5720 O.2   144  GLN144     -0.2717
    141  NE2       -1.4940   13.4960    3.9470 N.am  144  GLN144     -0.0878
    142  N         -1.2470   12.0940    9.7420 N.am  145  ALA145     -0.1966
    143  CA        -2.0510   12.2420   10.9470 C.3   145  ALA145      0.1728
    144  C         -3.3660   12.8580   10.5190 C.2   145  ALA145      0.2616
    145  O         -3.6510   12.9320    9.3190 O.2   145  ALA145     -0.2715
    146  CB        -1.3490   13.1100   11.9340 C.3   145  ALA145      0.0334
    147  N         -4.1820   13.2730   11.4770 N.am  146  VAL146     -0.1977
    148  CA        -5.4490   13.9330   11.1580 C.3   146  VAL146      0.1596
    149  C         -5.3590   15.4520   11.4590 C.2   146  VAL146      0.2287
    150  O         -4.8450   15.8390   12.5210 O.2   146  VAL146     -0.2864
    151  CB        -6.5990   13.2460   11.9230 C.3   146  VAL146      0.0276
    152  CG1       -7.8550   14.0910   11.9360 C.3   146  VAL146      0.0022
    153  CG2       -6.8730   11.8800   11.3180 C.3   146  VAL146      0.0022
    154  N         -1.0030   18.1080   14.4550 N.3   183  PRO183     -0.2116
    155  CA        -1.0050   17.9860   13.0020 C.3   183  PRO183      0.1372
    156  C         -2.0650   18.8540   12.3140 C.2   183  PRO183      0.2244
    157  O         -3.1580   19.0800   12.8610 O.2   183  PRO183     -0.2868
    158  CB        -1.2740   16.4990   12.7670 C.3   183  PRO183      0.0268
    159  CG        -1.9340   16.0340   13.9640 C.3   183  PRO183      0.0207
    160  CD        -1.5120   16.8950   15.1160 C.3   183  PRO183      0.0892
@<TRIPOS>BOND
     1   140   139    2
     2   141   139   am
     3   139   138    1
     4   138   137    1
     5   137   134    1
     6   133   134    1
     7   134   135    1
     8   135   136    2
     9   135   142   am
    10   145   144    2
    11   142   143    1
    12   144   143    1
    13   144   147   am
    14    24    25    1
    15    24    21    1
    16   143   146    1
    17   148   149    1
    18   148   147    1
    19   148   151    1
    20   153   151    1
    21   149   150    2
    22    36    35    1
    23    36    37    1
    24    23    22    2
    25    35    34    1
    26   151   152    1
    27    21    22    1
    28    21    20    1
    29   156   157    2
    30   156   155    1
    31    22    26   am
    32   158   155    1
    33   158   159    1
    34    34    31    1
    35    37    38    1
    36    31    30    1
    37    31    32    1
    38   155   154    1
    39     1     2    1
    40    30    28   am
    41    20    11   am
    42    26    27    1
    43    29    28    2
    44    28    27    1
    45    33    32    2
    46   159   160    1
    47     4     3    2
    48    32    39   am
    49    11    12    2
    50    11    10    1
    51   154   160    1
    52   126   127    2
    53   126   125    1
    54     2     3    1
    55     2     5    1
    56     3     9   am
    57    52    51   ar
    58    39    40    1
    59   125   124    1
    60   125   128    1
    61    47    48    2
    62    47    46    1
    63   124   118   am
    64     9    10    1
    65     5     6    1
    66   132   130   ar
    67   116   117    1
    68    10    13    1
    69   117   118    1
    70   117   120    1
    71   118   119    2
    72     6     7    1
    73   122   121   ar
    74    51    50    1
    75    51    53   ar
    76    50    49    1
    77    49    46    1
    78    13    14    1
    79    40    41    1
    80    40    43    1
    81    45    46    1
    82    45    41   am
    83    41    42    2
    84   130   131   ar
    85   130   129    1
    86   128   129    1
    87   121   120    1
    88   121   123   ar
    89     7     8    1
    90    44    43    1
    91    15    14   ar
    92    15    17   ar
    93    14    16   ar
    94    17    19   ar
    95    16    18   ar
    96   115   113   am
    97    97    96    1
    98    19    18   ar
    99    96    93    1
   100   113   112    1
   101   113   114    2
   102   112   109    1
   103    61    59   ar
   104    72    70    1
   105    93    92    1
   106    93    94    1
   107    69    70    2
   108    69    68    1
   109    58    59    1
   110    58    55    1
   111    59    60   ar
   112    98    94   am
   113    98    99    1
   114    70    71    1
   115   102    99    1
   116   102   103    1
   117   108   109    1
   118   108   100   am
   119   104   103   ar
   120   104   106   ar
   121    68    67    1
   122    88    87    2
   123   109   110    1
   124    92    87   am
   125    94    95    2
   126    99   100    1
   127    54    55    1
   128    87    86    1
   129   103   105   ar
   130   100   101    2
   131    55    56    1
   132   106   107   ar
   133    84    83    1
   134    85    86    1
   135    67    66    1
   136    81    83   ar
   137    81    79   ar
   138   110   111    2
   139    86    89    1
   140    83    82   ar
   141   105   107   ar
   142    56    57    2
   143    79    78   ar
   144    66    63    1
   145    89    90    1
   146    89    91    1
   147    82    80   ar
   148    62    63    1
   149    78    80   ar
   150    78    77    1
   151    63    64    1
   152    73    64   am
   153    73    74    1
   154    77    74    1
   155    64    65    2
   156    74    75    1
   157    75    76    2
