@<TRIPOS>MOLECULE
tmp/2ja3C00.pdb
 147 145 0 0 0
SMALL
GASTEIGER

@<TRIPOS>ATOM
      1  N         27.9720   75.1310   85.2870 N.3    10  LYS10      -0.1231
      2  CA        27.8270   75.2870   86.7310 C.3    10  LYS10       0.1678
      3  C         29.0800   75.9330   87.3260 C.2    10  LYS10       0.2434
      4  O         30.1600   75.8610   86.7330 O.2    10  LYS10      -0.2733
      5  CB        27.5320   73.9420   87.4070 C.3    10  LYS10       0.0284
      6  CG        26.0530   73.6010   87.4970 C.3    10  LYS10       0.0035
      7  CD        25.4950   73.1090   86.1680 C.3    10  LYS10       0.0206
      8  CE        23.9830   73.3150   86.0780 C.3    10  LYS10       0.1093
      9  NZ        23.2670   72.8050   87.2870 N.3    10  LYS10      -0.1314
     10  N         28.9380   76.5770   88.4980 N.am   11  PRO11      -0.2729
     11  CA        27.6980   76.7220   89.2660 C.3    11  PRO11       0.1401
     12  C         26.7220   77.7360   88.6550 C.2    11  PRO11       0.2269
     13  O         27.1430   78.6280   87.9170 O.2    11  PRO11      -0.2865
     14  CB        28.1860   77.2160   90.6360 C.3    11  PRO11       0.0296
     15  CG        29.6910   77.1090   90.6000 C.3    11  PRO11       0.0237
     16  CD        30.0670   77.2260   89.1750 C.3    11  PRO11       0.0939
     17  N         30.9300   80.0990   94.2640 N.3    17  LEU17      -0.1231
     18  CA        31.8330   80.0420   93.1140 C.3    17  LEU17       0.1693
     19  C         32.4250   78.6450   92.8620 C.2    17  LEU17       0.2592
     20  O         32.3860   77.7770   93.7310 O.2    17  LEU17      -0.2718
     21  CB        32.9520   81.0820   93.2680 C.3    17  LEU17       0.0284
     22  CG        32.5510   82.5630   93.2270 C.3    17  LEU17       0.0019
     23  CD1       33.7440   83.4690   93.5050 C.3    17  LEU17       0.0001
     24  CD2       31.9020   82.9370   91.8970 C.3    17  LEU17       0.0001
     25  N         32.9660   78.4470   91.6620 N.am   18  LEU18      -0.1966
     26  CA        33.5970   77.1910   91.2640 C.3    18  LEU18       0.1728
     27  C         34.6450   76.7990   92.2930 C.2    18  LEU18       0.2616
     28  O         35.3990   77.6510   92.7550 O.2    18  LEU18      -0.2715
     29  CB        34.2880   77.3870   89.9170 C.3    18  LEU18       0.0311
     30  CG        34.0820   76.4600   88.7180 C.3    18  LEU18       0.0022
     31  CD1       35.1720   76.7260   87.6940 C.3    18  LEU18       0.0001
     32  CD2       34.0930   75.0130   89.1120 C.3    18  LEU18       0.0001
     33  N         34.7000   75.5170   92.6510 N.am   19  THR19      -0.1951
     34  CA        35.7080   75.0370   93.5970 C.3    19  THR19       0.1897
     35  C         36.9880   74.6740   92.8730 C.2    19  THR19       0.2313
     36  O         37.0060   73.7560   92.0540 O.2    19  THR19      -0.2863
     37  CB        35.2320   73.8090   94.3830 C.3    19  THR19       0.1794
     38  OG1       33.9450   74.0760   94.9490 O.3    19  THR19      -0.2208
     39  CG2       36.2060   73.4910   95.5030 C.3    19  THR19       0.0378
     40  N         31.6050   66.4100   96.9360 N.3    39  THR39      -0.1203
     41  CA        31.4780   65.1030   96.2940 C.3    39  THR39       0.1994
     42  C         31.8350   65.1590   94.8110 C.2    39  THR39       0.2618
     43  O         31.5370   64.2260   94.0660 O.2    39  THR39      -0.2717
     44  CB        30.0600   64.4920   96.4480 C.3    39  THR39       0.1784
     45  OG1       29.1870   65.0340   95.4490 O.3    39  THR39      -0.2211
     46  CG2       29.4850   64.7620   97.8330 C.3    39  THR39       0.0376
     47  N         32.4730   66.2540   94.3940 N.am   40  TYR40      -0.1961
     48  CA        32.8640   66.4570   92.9950 C.3    40  TYR40       0.1771
     49  C         33.9400   65.4640   92.5560 C.2    40  TYR40       0.2620
     50  O         34.7930   65.0640   93.3550 O.2    40  TYR40      -0.2715
     51  CB        33.3920   67.8740   92.7780 C.3    40  TYR40       0.0574
     52  CG        32.4740   68.9980   93.2080 C.ar   40  TYR40      -0.0198
     53  CD1       32.9370   70.0150   94.0420 C.ar   40  TYR40      -0.0009
     54  CD2       31.1590   69.0640   92.7630 C.ar   40  TYR40      -0.0009
     55  CE1       32.1170   71.0570   94.4340 C.ar   40  TYR40       0.0417
     56  CE2       30.3220   70.1090   93.1500 C.ar   40  TYR40       0.0417
     57  CZ        30.8090   71.1030   93.9860 C.ar   40  TYR40       0.1957
     58  OH        29.9880   72.1430   94.3790 O.3    40  TYR40      -0.2866
     59  N         33.9060   65.0810   91.2840 N.am   41  SER41      -0.1936
     60  CA        34.8810   64.1350   90.7530 C.3    41  SER41       0.2055
     61  C         36.2890   64.7200   90.7250 C.2    41  SER41       0.2644
     62  O         37.2670   64.0270   91.0240 O.2    41  SER41      -0.2714
     63  CB        34.4880   63.6780   89.3520 C.3    41  SER41       0.2130
     64  OG        33.2010   63.0990   89.3710 O.3    41  SER41      -0.2179
     65  N         36.3960   65.9920   90.3580 N.am   42  GLY42      -0.1939
     66  CA        37.6990   66.6210   90.2470 C.3    42  GLY42       0.2014
     67  C         37.6470   68.1210   90.3950 C.2    42  GLY42       0.2639
     68  O         36.5680   68.7070   90.5140 O.2    42  GLY42      -0.2714
     69  N         38.8270   68.7370   90.3780 N.am   43  PHE43      -0.1960
     70  CA        38.9620   70.1760   90.5760 C.3    43  PHE43       0.1756
     71  C         39.8940   70.8030   89.5490 C.2    43  PHE43       0.2461
     72  O         40.9440   70.2540   89.2330 O.2    43  PHE43      -0.2730
     73  CB        39.4950   70.4700   91.9780 C.3    43  PHE43       0.0574
     74  CG        38.8100   69.6940   93.0610 C.ar   43  PHE43      -0.0200
     75  CD1       39.3360   68.4900   93.5080 C.ar   43  PHE43      -0.0042
     76  CD2       37.6410   70.1610   93.6330 C.ar   43  PHE43      -0.0042
     77  CE1       38.7080   67.7730   94.5030 C.ar   43  PHE43      -0.0003
     78  CE2       37.0130   69.4490   94.6260 C.ar   43  PHE43      -0.0003
     79  CZ        37.5460   68.2530   95.0610 C.ar   43  PHE43      -0.0000
     80  N         39.5040   71.9590   89.0120 N.am   44  PRO44      -0.2727
     81  CA        40.4430   72.7140   88.2190 C.3    44  PRO44       0.1402
     82  C         41.5350   73.2620   89.1230 C.2    44  PRO44       0.2269
     83  O         41.2790   73.5360   90.2920 O.2    44  PRO44      -0.2865
     84  CB        39.5920   73.8680   87.6780 C.3    44  PRO44       0.0296
     85  CG        38.1790   73.4410   87.8630 C.3    44  PRO44       0.0237
     86  CD        38.1900   72.6110   89.0840 C.3    44  PRO44       0.0939
     87  N         43.5430   70.0650   85.4240 N.3    57  PHE57      -0.1241
     88  CA        42.4190   69.4950   86.1600 C.3    57  PHE57       0.1605
     89  C         42.8900   68.2430   86.9160 C.2    57  PHE57       0.2264
     90  O         43.5740   67.3970   86.3520 O.2    57  PHE57      -0.2867
     91  CB        41.2890   69.1620   85.1720 C.3    57  PHE57       0.0534
     92  CG        39.9760   68.8000   85.8260 C.ar   57  PHE57      -0.0203
     93  CD1       39.1350   69.7870   86.3250 C.ar   57  PHE57      -0.0042
     94  CD2       39.5700   67.4750   85.9190 C.ar   57  PHE57      -0.0042
     95  CE1       37.9280   69.4560   86.9220 C.ar   57  PHE57      -0.0003
     96  CE2       38.3660   67.1420   86.5080 C.ar   57  PHE57      -0.0003
     97  CZ        37.5450   68.1340   87.0110 C.ar   57  PHE57      -0.0000
     98  N         32.0640   74.9650   84.6180 N.3   145  ILE145     -0.1245
     99  CA        32.3230   73.5790   84.2640 C.3   145  ILE145      0.1561
    100  C         31.0620   72.8980   83.7320 C.2   145  ILE145      0.2260
    101  O         29.9440   73.2630   84.0880 O.2   145  ILE145     -0.2867
    102  CB        32.8650   72.8010   85.4740 C.3   145  ILE145      0.0252
    103  CG1       33.3040   71.3950   85.0600 C.3   145  ILE145      0.0019
    104  CG2       31.8310   72.7660   86.5810 C.3   145  ILE145      0.0019
    105  CD1       34.1320   70.6740   86.1040 C.3   145  ILE145      0.0001
    106  N         29.8560   68.8260   82.9650 N.3   147  THR147     -0.1203
    107  CA        30.1990   67.4090   82.9870 C.3   147  THR147      0.1994
    108  C         29.3630   66.6570   81.9690 C.2   147  THR147      0.2618
    109  O         28.4960   67.2320   81.3310 O.2   147  THR147     -0.2717
    110  CB        29.9800   66.7870   84.3740 C.3   147  THR147      0.1784
    111  OG1       28.5810   66.7540   84.6640 O.3   147  THR147     -0.2211
    112  CG2       30.6800   67.5930   85.4430 C.3   147  THR147      0.0376
    113  N         29.6250   65.3690   81.8100 N.am  148  LYS148     -0.1965
    114  CA        28.8560   64.5760   80.8600 C.3   148  LYS148      0.1728
    115  C         27.4040   64.4880   81.3090 C.2   148  LYS148      0.2616
    116  O         26.4930   64.7410   80.5240 O.2   148  LYS148     -0.2715
    117  CB        29.4530   63.1750   80.6940 C.3   148  LYS148      0.0311
    118  CG        28.8900   62.3940   79.5190 C.3   148  LYS148      0.0038
    119  CD        29.6020   61.0680   79.3490 C.3   148  LYS148      0.0206
    120  CE        28.9570   60.2330   78.2500 C.3   148  LYS148      0.1093
    121  NZ        29.3290   58.7910   78.3720 N.3   148  LYS148     -0.1314
    122  N         27.1910   64.1410   82.5750 N.am  149  LYS149     -0.1963
    123  CA        25.8400   64.0700   83.1090 C.3   149  LYS149      0.1728
    124  C         25.1140   65.4080   82.9330 C.2   149  LYS149      0.2616
    125  O         23.9130   65.4390   82.6750 O.2   149  LYS149     -0.2715
    126  CB        25.8460   63.6240   84.5750 C.3   149  LYS149      0.0311
    127  CG        24.4690   63.2150   85.0820 C.3   149  LYS149      0.0038
    128  CD        24.4800   62.7520   86.5300 C.3   149  LYS149      0.0206
    129  CE        24.9320   61.2960   86.6440 C.3   149  LYS149      0.1093
    130  NZ        24.7440   60.7720   88.0340 N.3   149  LYS149     -0.1314
    131  N         25.8510   66.5080   83.0600 N.am  150  ASP150     -0.1971
    132  CA        25.3100   67.8370   82.7780 C.3   150  ASP150      0.1709
    133  C         24.7260   67.9170   81.3640 C.2   150  ASP150      0.2293
    134  O         23.6800   68.5260   81.1470 O.2   150  ASP150     -0.2864
    135  CB        26.3960   68.9070   82.9430 C.3   150  ASP150      0.1436
    136  CG        26.6690   69.2570   84.3980 C.2   150  ASP150      0.3671
    137  OD1       25.7930   69.0090   85.2520 O.co2 150  ASP150     -0.2456
    138  OD2       27.7590   69.7930   84.6930 O.co2 150  ASP150     -0.2456
    139  N         21.3730   65.7870   80.9100 N.3   153  LYS153     -0.1245
    140  CA        20.1820   66.3930   81.4990 C.3   153  LYS153      0.1561
    141  C         19.6570   67.4980   80.6000 C.2   153  LYS153      0.2260
    142  O         18.4590   67.7630   80.5670 O.2   153  LYS153     -0.2867
    143  CB        20.4770   66.9490   82.8940 C.3   153  LYS153      0.0271
    144  CG        20.8690   65.8910   83.9240 C.3   153  LYS153      0.0035
    145  CD        21.2670   66.5450   85.2430 C.3   153  LYS153      0.0206
    146  CE        21.9390   65.5570   86.1840 C.3   153  LYS153      0.1093
    147  NZ        22.3890   66.2180   87.4390 N.3   153  LYS153     -0.1314
@<TRIPOS>BOND
     1   120   121    1
     2   120   119    1
     3   119   118    1
     4   118   117    1
     5   116   115    2
     6   142   141    2
     7   141   140    1
     8   117   114    1
     9   114   115    1
    10   114   113    1
    11   139   140    1
    12   134   133    2
    13   115   122   am
    14   109   108    2
    15   133   132    1
    16   140   143    1
    17   113   108   am
    18   108   107    1
    19   122   123    1
    20   125   124    2
    21   132   135    1
    22   132   131    1
    23   143   144    1
    24   124   131   am
    25   124   123    1
    26   135   136    1
    27   106   107    1
    28   107   110    1
    29   123   126    1
    30   100   101    2
    31   100    99    1
    32   144   145    1
    33    99    98    1
    34    99   102    1
    35   110   111    1
    36   110   112    1
    37   136   138   ar
    38   136   137   ar
    39   126   127    1
    40   103   102    1
    41   103   105    1
    42   127   128    1
    43    91    92    1
    44    91    88    1
    45   145   146    1
    46     1     2    1
    47    87    88    1
    48   102   104    1
    49    92    94   ar
    50    92    93   ar
    51    94    96   ar
    52     8     7    1
    53     8     9    1
    54    88    89    1
    55     7     6    1
    56   146   147    1
    57    93    95   ar
    58    90    89    2
    59    96    97   ar
    60   128   129    1
    61   129   130    1
    62     2     3    1
    63     2     5    1
    64     4     3    2
    65    95    97   ar
    66     3    10   am
    67     5     6    1
    68    84    85    1
    69    84    81    1
    70    31    30    1
    71    85    86    1
    72    13    12    2
    73    81    80    1
    74    81    82    1
    75    10    16    1
    76    10    11    1
    77    12    11    1
    78    30    32    1
    79    30    29    1
    80    80    86    1
    81    80    71   am
    82    82    83    2
    83    16    15    1
    84    72    71    2
    85    11    14    1
    86    63    64    1
    87    63    60    1
    88    71    70    1
    89    29    26    1
    90    66    65    1
    91    66    67    1
    92    65    61   am
    93    69    67   am
    94    69    70    1
    95    67    68    2
    96    70    73    1
    97    15    14    1
    98    61    60    1
    99    61    62    2
   100    60    59    1
   101    26    25    1
   102    26    27    1
   103    59    49   am
   104    25    19   am
   105    24    22    1
   106    73    74    1
   107    36    35    2
   108    27    33   am
   109    27    28    2
   110    49    48    1
   111    49    50    2
   112    33    34    1
   113    54    56   ar
   114    54    52   ar
   115    51    48    1
   116    51    52    1
   117    19    18    1
   118    19    20    2
   119    35    34    1
   120    48    47    1
   121    74    75   ar
   122    74    76   ar
   123    18    21    1
   124    18    17    1
   125    56    57   ar
   126    52    53   ar
   127    22    21    1
   128    22    23    1
   129    75    77   ar
   130    34    37    1
   131    76    78   ar
   132    57    58    1
   133    57    55   ar
   134    53    55   ar
   135    43    42    2
   136    37    38    1
   137    37    39    1
   138    47    42   am
   139    77    79   ar
   140    78    79   ar
   141    42    41    1
   142    45    44    1
   143    41    44    1
   144    41    40    1
   145    44    46    1
