@<TRIPOS>MOLECULE
tmp/2jafA00.pdb
 105 96 0 0 0
SMALL
GASTEIGER

@<TRIPOS>ATOM
      1  N         52.7010   12.5900   25.4470 N.3    51  VAL51      -0.1245
      2  CA        51.8870   13.4130   26.3460 C.3    51  VAL51       0.1561
      3  C         51.2360   12.5050   27.3910 C.2    51  VAL51       0.2260
      4  O         51.1050   12.8700   28.5670 O.2    51  VAL51      -0.2867
      5  CB        50.7740   14.1640   25.5710 C.3    51  VAL51       0.0252
      6  CG1       49.9100   14.9910   26.5470 C.3    51  VAL51       0.0019
      7  CG2       51.4000   15.0650   24.5140 C.3    51  VAL51       0.0019
      8  N         53.5120   11.6230   30.2450 N.3    54  SER54      -0.1202
      9  CA        53.6300   12.8120   31.0810 C.3    54  SER54       0.2020
     10  C         52.4560   12.8800   32.0490 C.2    54  SER54       0.2619
     11  O         52.6250   13.1880   33.2270 O.2    54  SER54      -0.2717
     12  CB        53.6360   14.0720   30.2150 C.3    54  SER54       0.2103
     13  OG        53.5400   15.2390   31.0150 O.3    54  SER54      -0.2182
     14  N         51.2640   12.5830   31.5430 N.am   55  SER55      -0.1951
     15  CA        50.0630   12.6250   32.3670 C.3    55  SER55       0.1924
     16  C         50.1470   11.6310   33.5210 C.2    55  SER55       0.2314
     17  O         49.9070   11.9830   34.6770 O.2    55  SER55      -0.2863
     18  CB        48.8240   12.3180   31.5270 C.3    55  SER55       0.2116
     19  OG        47.6540   12.3720   32.3290 O.3    55  SER55      -0.2180
     20  N         52.4980   12.6180   36.2390 N.3    58  GLY58      -0.1225
     21  CA        51.9210   13.6590   37.0730 C.3    58  GLY58       0.1811
     22  C         51.0470   13.0200   38.1340 C.2    58  GLY58       0.2280
     23  O         51.0910   13.3970   39.3100 O.2    58  GLY58      -0.2866
     24  N         51.6810   15.0360   41.8850 N.3    63  LEU63      -0.1231
     25  CA        51.6980   16.4410   41.4830 C.3    63  LEU63       0.1693
     26  C         50.3300   16.9250   41.0140 C.2    63  LEU63       0.2592
     27  O         49.8810   18.0070   41.3910 O.2    63  LEU63      -0.2718
     28  CB        52.7190   16.6630   40.3570 C.3    63  LEU63       0.0284
     29  CG        52.7570   18.0820   39.7660 C.3    63  LEU63       0.0019
     30  CD1       53.3190   19.0470   40.8000 C.3    63  LEU63       0.0001
     31  CD2       53.6230   18.1080   38.5040 C.3    63  LEU63       0.0001
     32  N         49.6610   16.1110   40.2020 N.am   64  THR64      -0.1953
     33  CA        48.3630   16.4900   39.6590 C.3    64  THR64       0.1897
     34  C         47.1760   15.7020   40.2200 C.2    64  THR64       0.2313
     35  O         46.2230   15.3910   39.5010 O.2    64  THR64      -0.2863
     36  CB        48.3800   16.3860   38.1150 C.3    64  THR64       0.1794
     37  OG1       48.7700   15.0650   37.7290 O.3    64  THR64      -0.2208
     38  CG2       49.3710   17.3830   37.5270 C.3    64  THR64       0.0378
     39  N         43.5300   17.9180   32.8290 N.3    89  LEU89      -0.1231
     40  CA        44.4710   18.9310   32.3740 C.3    89  LEU89       0.1693
     41  C         45.3030   18.5010   31.1610 C.2    89  LEU89       0.2592
     42  O         45.4310   19.2430   30.1840 O.2    89  LEU89      -0.2718
     43  CB        45.4280   19.3090   33.5090 C.3    89  LEU89       0.0284
     44  CG        46.4770   20.3530   33.1140 C.3    89  LEU89       0.0019
     45  CD1       45.7830   21.6930   32.8670 C.3    89  LEU89       0.0001
     46  CD2       47.5270   20.4850   34.2110 C.3    89  LEU89       0.0001
     47  N         45.8810   17.3040   31.2160 N.am   90  THR90      -0.1953
     48  CA        46.7040   16.8480   30.1040 C.3    90  THR90       0.1897
     49  C         45.8900   16.5370   28.8490 C.2    90  THR90       0.2313
     50  O         46.4150   16.6020   27.7370 O.2    90  THR90      -0.2863
     51  CB        47.5470   15.6190   30.4930 C.3    90  THR90       0.1794
     52  OG1       46.6940   14.4910   30.7050 O.3    90  THR90      -0.2208
     53  CG2       48.3270   15.9060   31.7700 C.3    90  THR90       0.0378
     54  N         43.9520   18.3400   27.5800 N.3    92  ALA92      -0.1231
     55  CA        43.9600   19.6090   26.8560 C.3    92  ALA92       0.1694
     56  C         45.1120   19.7060   25.8580 C.2    92  ALA92       0.2591
     57  O         45.1140   20.5770   24.9910 O.2    92  ALA92      -0.2718
     58  CB        44.0080   20.7850   27.8470 C.3    92  ALA92       0.0304
     59  N         46.0920   18.8150   25.9880 N.am   93  LEU93      -0.1980
     60  CA        47.2180   18.7810   25.0620 C.3    93  LEU93       0.1596
     61  C         47.1670   17.5130   24.2020 C.2    93  LEU93       0.2287
     62  O         47.4150   17.5640   23.0000 O.2    93  LEU93      -0.2864
     63  CB        48.5480   18.8320   25.8190 C.3    93  LEU93       0.0297
     64  CG        49.7980   18.7230   24.9380 C.3    93  LEU93       0.0022
     65  CD1       49.8730   19.8980   23.9720 C.3    93  LEU93       0.0001
     66  CD2       51.0320   18.6790   25.8200 C.3    93  LEU93       0.0001
     67  N         44.1380   17.4610   21.4850 N.3    96  PRO96      -0.2102
     68  CA        44.3640   18.2910   20.2990 C.3    96  PRO96       0.1504
     69  C         45.3630   17.5970   19.3560 C.2    96  PRO96       0.2575
     70  O         45.2940   17.7510   18.1350 O.2    96  PRO96      -0.2718
     71  CB        44.9080   19.5890   20.8930 C.3    96  PRO96       0.0282
     72  CG        44.1340   19.6930   22.1640 C.3    96  PRO96       0.0208
     73  CD        44.2300   18.2770   22.7100 C.3    96  PRO96       0.0893
     74  N         46.2840   16.8200   19.9210 N.am   97  MET97      -0.1980
     75  CA        47.2500   16.1050   19.0910 C.3    97  MET97       0.1605
     76  C         46.5790   14.9690   18.3250 C.2    97  MET97       0.2287
     77  O         46.9390   14.6800   17.1820 O.2    97  MET97      -0.2864
     78  CB        48.4100   15.5780   19.9370 C.3    97  MET97       0.0413
     79  CG        49.4360   16.6510   20.2690 C.3    97  MET97       0.0598
     80  SD        50.0480   17.4860   18.7750 S.3    97  MET97      -0.1393
     81  CE        48.9640   18.9010   18.7140 C.3    97  MET97       0.0692
     82  N         44.8950   16.6620   15.6030 N.3   100  LEU100     -0.1245
     83  CA        45.8680   17.1650   14.6400 C.3   100  LEU100      0.1561
     84  C         46.2510   16.0280   13.6910 C.2   100  LEU100      0.2260
     85  O         46.2740   16.2000   12.4720 O.2   100  LEU100     -0.2867
     86  CB        47.1180   17.6830   15.3600 C.3   100  LEU100      0.0270
     87  CG        48.2750   18.0950   14.4410 C.3   100  LEU100      0.0019
     88  CD1       47.8170   19.1930   13.4850 C.3   100  LEU100      0.0001
     89  CD2       49.4500   18.5600   15.2790 C.3   100  LEU100      0.0001
     90  N         40.1490   22.4670   17.4960 N.3   117  ILE117     -0.1245
     91  CA        41.0770   22.3960   18.6180 C.3   117  ILE117      0.1561
     92  C         40.6160   23.3150   19.7430 C.2   117  ILE117      0.2260
     93  O         40.7310   22.9800   20.9250 O.2   117  ILE117     -0.2867
     94  CB        42.5100   22.7700   18.1690 C.3   117  ILE117      0.0252
     95  CG1       43.0170   21.7070   17.1820 C.3   117  ILE117      0.0019
     96  CG2       43.4410   22.8650   19.3780 C.3   117  ILE117      0.0019
     97  CD1       44.4300   21.9220   16.6900 C.3   117  ILE117      0.0001
     98  N         39.7110   22.2120   23.4570 N.3   121  ILE121     -0.1245
     99  CA        40.3110   22.7850   24.6530 C.3   121  ILE121      0.1561
    100  C         39.2040   23.2180   25.6100 C.2   121  ILE121      0.2260
    101  O         39.3120   23.0230   26.8180 O.2   121  ILE121     -0.2867
    102  CB        41.2330   23.9770   24.2890 C.3   121  ILE121      0.0252
    103  CG1       42.4660   23.4420   23.5430 C.3   121  ILE121      0.0019
    104  CG2       41.6690   24.7170   25.5470 C.3   121  ILE121      0.0019
    105  CD1       43.3760   24.5200   22.9690 C.3   121  ILE121      0.0001
@<TRIPOS>BOND
     1    85    84    2
     2    88    87    1
     3    84    83    1
     4    87    89    1
     5    87    86    1
     6    83    86    1
     7    83    82    1
     8    97    95    1
     9    77    76    2
    10    95    94    1
    11    90    91    1
    12    70    69    2
    13    94    91    1
    14    94    96    1
    15    76    75    1
    16    91    92    1
    17    81    80    1
    18    80    79    1
    19    75    74    1
    20    75    78    1
    21    69    74   am
    22    69    68    1
    23    92    93    2
    24    78    79    1
    25    68    71    1
    26    68    67    1
    27    71    72    1
    28    67    73    1
    29    72    73    1
    30   105   103    1
    31    62    61    2
    32    98    99    1
    33   103   102    1
    34    65    64    1
    35    61    60    1
    36   102    99    1
    37   102   104    1
    38     7     5    1
    39    99   100    1
    40    64    63    1
    41    64    66    1
    42    57    56    2
    43    60    63    1
    44    60    59    1
    45     1     2    1
    46     5     2    1
    47     5     6    1
    48   100   101    2
    49    56    59   am
    50    56    55    1
    51     2     3    1
    52    55    54    1
    53    55    58    1
    54     3     4    2
    55    50    49    2
    56    49    48    1
    57    48    51    1
    58    48    47    1
    59    42    41    2
    60    12    13    1
    61    12     9    1
    62     8     9    1
    63    51    52    1
    64    51    53    1
    65     9    10    1
    66    41    47   am
    67    41    40    1
    68    18    19    1
    69    18    15    1
    70    14    10   am
    71    14    15    1
    72    10    11    2
    73    15    16    1
    74    40    39    1
    75    40    43    1
    76    45    44    1
    77    44    43    1
    78    44    46    1
    79    16    17    2
    80    20    21    1
    81    21    22    1
    82    38    36    1
    83    37    36    1
    84    36    33    1
    85    22    23    2
    86    31    29    1
    87    35    34    2
    88    33    32    1
    89    33    34    1
    90    29    28    1
    91    29    30    1
    92    32    26   am
    93    28    25    1
    94    26    27    2
    95    26    25    1
    96    25    24    1
