@<TRIPOS>MOLECULE
tmp/2jaiA00.pdb
 138 128 0 0 0
SMALL
GASTEIGER

@<TRIPOS>ATOM
      1  N         16.6030    6.1050   71.4220 N.3    22  LEU22      -0.1245
      2  CA        15.5200    6.9950   71.0200 C.3    22  LEU22       0.1561
      3  C         14.3110    6.1950   70.5110 C.2    22  LEU22       0.2260
      4  O         14.4710    5.1590   69.8450 O.2    22  LEU22      -0.2867
      5  CB        16.0220    7.9050   69.9080 C.3    22  LEU22       0.0270
      6  CG        17.2990    8.7230   70.1640 C.3    22  LEU22       0.0019
      7  CD1       17.7030    9.5310   68.8980 C.3    22  LEU22       0.0001
      8  CD2       17.1660    9.6500   71.3630 C.3    22  LEU22       0.0001
      9  N         21.7580    3.6180   70.1410 N.3    65  ASP65      -0.1239
     10  CA        21.1320    3.3200   68.8800 C.3    65  ASP65       0.1674
     11  C         22.0820    2.7400   67.8390 C.2    65  ASP65       0.2266
     12  O         21.7350    2.7040   66.6550 O.2    65  ASP65      -0.2867
     13  CB        20.4840    4.6000   68.3330 C.3    65  ASP65       0.1410
     14  CG        19.1650    4.9090   69.0230 C.2    65  ASP65       0.3668
     15  OD1       18.2080    4.1300   68.7950 O.co2  65  ASP65      -0.2456
     16  OD2       19.1060    5.8710   69.8210 O.co2  65  ASP65      -0.2456
     17  N         21.4660    0.2630   64.7210 N.3    68  PHE68      -0.1241
     18  CA        20.7290    0.6960   63.5200 C.3    68  PHE68       0.1605
     19  C         21.6810    1.2820   62.4580 C.2    68  PHE68       0.2264
     20  O         21.6030    2.4690   62.0830 O.2    68  PHE68      -0.2867
     21  CB        19.6240    1.6680   63.9300 C.3    68  PHE68       0.0534
     22  CG        18.6100    1.0500   64.9050 C.ar   68  PHE68      -0.0203
     23  CD1       18.3740    1.6240   66.1490 C.ar   68  PHE68      -0.0042
     24  CD2       17.9760   -0.1410   64.5940 C.ar   68  PHE68      -0.0042
     25  CE1       17.4870    1.0340   67.0520 C.ar   68  PHE68      -0.0003
     26  CE2       17.0690   -0.7190   65.4670 C.ar   68  PHE68      -0.0003
     27  CZ        16.8180   -0.1430   66.6970 C.ar   68  PHE68      -0.0000
     28  N         21.8180    0.9680   59.3880 N.3    70  GLU70      -0.1231
     29  CA        21.2440    1.4940   58.1470 C.3    70  GLU70       0.1699
     30  C         21.2770    3.0020   58.0600 C.2    70  GLU70       0.2592
     31  O         21.4390    3.5480   56.9850 O.2    70  GLU70      -0.2718
     32  CB        19.8040    1.0230   57.8860 C.3    70  GLU70       0.0402
     33  CG        19.1570    1.6980   56.6350 C.3    70  GLU70       0.1161
     34  CD        17.9130    0.9730   56.1550 C.2    70  GLU70       0.3649
     35  OE1       16.8340    1.0980   56.7950 O.co2  70  GLU70      -0.2457
     36  OE2       18.0430    0.2570   55.1320 O.co2  70  GLU70      -0.2457
     37  N         21.1150    3.6730   59.1790 N.am   71  ASP71      -0.1974
     38  CA        21.0590    5.1340   59.1580 C.3    71  ASP71       0.1709
     39  C         22.3580    5.8700   58.8590 C.2    71  ASP71       0.2293
     40  O         22.3260    7.0310   58.4270 O.2    71  ASP71      -0.2864
     41  CB        20.4390    5.6100   60.4430 C.3    71  ASP71       0.1436
     42  CG        18.9810    5.1720   60.5420 C.2    71  ASP71       0.3671
     43  OD1       18.3250    5.1930   59.4690 O.co2  71  ASP71      -0.2456
     44  OD2       18.5030    4.8010   61.6370 O.co2  71  ASP71      -0.2456
     45  N         23.3420   10.5630   67.4680 N.3    90  ARG90      -0.1245
     46  CA        23.8100    9.4180   66.6810 C.3    90  ARG90       0.1563
     47  C         25.0540    9.6840   65.7990 C.2    90  ARG90       0.2260
     48  O         25.5750    8.7780   65.1710 O.2    90  ARG90      -0.2867
     49  CB        22.6510    8.8470   65.8760 C.3    90  ARG90       0.0307
     50  CG        21.5190    8.2040   66.8030 C.3    90  ARG90       0.0489
     51  CD        20.5380    7.2960   66.0310 C.3    90  ARG90       0.2205
     52  NE        21.3150    6.2300   65.4340 N.pl3  90  ARG90      -0.0865
     53  CZ        20.8910    5.4760   64.4410 C.cat  90  ARG90       0.5346
     54  NH1       19.6530    5.6560   63.9860 N.pl3  90  ARG90       0.1354
     55  NH2       21.6940    4.5310   63.9400 N.pl3  90  ARG90       0.1354
     56  N         17.7220    5.2470   56.5920 N.3   118  GLY118     -0.1225
     57  CA        16.3350    4.7570   56.6740 C.3   118  GLY118      0.1811
     58  C         15.4010    5.5230   55.7460 C.2   118  GLY118      0.2280
     59  O         14.3380    5.0170   55.3610 O.2   118  GLY118     -0.2866
     60  N         14.5390   13.7350   60.1210 N.3   134  ARG134     -0.1245
     61  CA        15.9420   13.2600   60.1240 C.3   134  ARG134      0.1563
     62  C         16.6280   13.5560   58.8010 C.2   134  ARG134      0.2260
     63  O         17.8370   13.6730   58.7670 O.2   134  ARG134     -0.2867
     64  CB        15.9780   11.7490   60.3610 C.3   134  ARG134      0.0307
     65  CG        15.3490   11.2990   61.6960 C.3   134  ARG134      0.0489
     66  CD        16.3080   11.5820   62.8950 C.3   134  ARG134      0.2205
     67  NE        15.8590   11.0060   64.1580 N.pl3 134  ARG134     -0.0865
     68  CZ        16.1350    9.7770   64.5930 C.cat 134  ARG134      0.5346
     69  NH1       16.9130    8.9110   63.8790 N.pl3 134  ARG134      0.1354
     70  NH2       15.6540    9.4140   65.7870 N.pl3 134  ARG134      0.1354
     71  N          8.9430    7.5010   60.9680 N.3   159  LEU159     -0.1231
     72  CA        10.1990    8.1540   61.2380 C.3   159  LEU159      0.1693
     73  C         10.9020    8.4190   59.8950 C.2   159  LEU159      0.2592
     74  O         11.5460    9.4730   59.7000 O.2   159  LEU159     -0.2718
     75  CB        11.0830    7.2190   62.0960 C.3   159  LEU159      0.0284
     76  CG        12.4210    7.8380   62.5100 C.3   159  LEU159      0.0019
     77  CD1       12.1720    9.1150   63.3580 C.3   159  LEU159      0.0001
     78  CD2       13.2650    6.7830   63.2780 C.3   159  LEU159      0.0001
     79  N         10.7990    7.4230   59.0040 N.am  160  HIS160     -0.1976
     80  CA        11.5510    7.3770   57.7780 C.3   160  HIS160      0.1656
     81  C         10.6460    6.8300   56.7040 C.2   160  HIS160      0.2291
     82  O          9.6460    6.1360   56.9980 O.2   160  HIS160     -0.2864
     83  CB        12.6640    6.3360   57.8990 C.3   160  HIS160      0.0771
     84  CG        13.7490    6.6980   58.8560 C.ar  160  HIS160      0.0820
     85  ND1       14.1270    5.8620   59.8850 N.ar  160  HIS160     -0.2267
     86  CD2       14.5570    7.7870   58.9270 C.ar  160  HIS160      0.1154
     87  CE1       15.1170    6.4270   60.5550 C.ar  160  HIS160      0.1986
     88  NE2       15.3720    7.6070   60.0170 N.ar  160  HIS160     -0.2212
     89  N         11.2280    4.3350   54.8410 N.3   162  LYS162     -0.1245
     90  CA        11.1690    2.8840   54.9080 C.3   162  LYS162      0.1561
     91  C         10.4800    2.3410   56.1990 C.2   162  LYS162      0.2260
     92  O         10.4550    1.1430   56.4370 O.2   162  LYS162     -0.2867
     93  CB        12.5700    2.2780   54.6710 C.3   162  LYS162      0.0271
     94  CG        13.0560    2.4480   53.2150 C.3   162  LYS162      0.0035
     95  CD        14.2120    1.4990   52.8610 C.3   162  LYS162      0.0206
     96  CE        15.4060    1.7780   53.7590 C.3   162  LYS162      0.1093
     97  NZ        16.7110    1.4450   53.1660 N.3   162  LYS162     -0.1314
     98  N          8.3480   -3.3300   55.6280 N.3   205  ASN205     -0.1240
     99  CA         9.7980   -3.2770   55.6890 C.3   205  ASN205      0.1653
    100  C         10.3200   -4.6960   55.6930 C.2   205  ASN205      0.2266
    101  O         10.0800   -5.5030   56.6140 O.2   205  ASN205     -0.2867
    102  CB        10.2820   -2.4420   56.8780 C.3   205  ASN205      0.1155
    103  CG        11.7930   -2.3270   56.9290 C.2   205  ASN205      0.2627
    104  OD1       12.4520   -3.2890   57.2880 O.2   205  ASN205     -0.2716
    105  ND2       12.3550   -1.1510   56.5630 N.am  205  ASN205     -0.0877
    106  N         11.8170    0.6170   69.8190 N.3   250  VAL250     -0.1231
    107  CA        12.6450    1.7900   69.5870 C.3   250  VAL250      0.1692
    108  C         12.6910    2.0610   68.0520 C.2   250  VAL250      0.2592
    109  O         13.6840    2.5320   67.5300 O.2   250  VAL250     -0.2718
    110  CB        14.0670    1.6520   70.2310 C.3   250  VAL250      0.0266
    111  CG1       13.9740    1.4260   71.7640 C.3   250  VAL250      0.0020
    112  CG2       14.8210    0.4600   69.6310 C.3   250  VAL250      0.0020
    113  N         11.6230    1.6990   67.3420 N.am  251  ASP251     -0.1960
    114  CA        11.4550    2.0440   65.9180 C.3   251  ASP251      0.1840
    115  C         12.3780    1.3780   64.9220 C.2   251  ASP251      0.2623
    116  O         12.5270    1.8970   63.8170 O.2   251  ASP251     -0.2715
    117  CB        11.5130    3.5510   65.6860 C.3   251  ASP251      0.1450
    118  CG        10.4960    4.2910   66.5140 C.2   251  ASP251      0.3671
    119  OD1        9.3170    3.8540   66.6330 O.co2 251  ASP251     -0.2456
    120  OD2       10.8840    5.3010   67.0850 O.co2 251  ASP251     -0.2456
    121  N         12.9690    0.2410   65.2540 N.am  252  GLY252     -0.1940
    122  CA        13.8030   -0.3870   64.2560 C.3   252  GLY252      0.2014
    123  C         13.0220   -1.4600   63.5570 C.2   252  GLY252      0.2638
    124  O         12.1690   -2.0760   64.1930 O.2   252  GLY252     -0.2714
    125  N         13.3340   -1.7340   62.2830 N.am  253  LEU253     -0.1977
    126  CA        12.6250   -2.7710   61.5190 C.3   253  LEU253      0.1596
    127  C         13.6400   -3.6780   60.8810 C.2   253  LEU253      0.2287
    128  O         14.8030   -3.6490   61.2780 O.2   253  LEU253     -0.2864
    129  CB        11.6950   -2.1490   60.4700 C.3   253  LEU253      0.0297
    130  CG        10.7620   -0.9780   60.8720 C.3   253  LEU253      0.0022
    131  CD1       11.5270    0.3390   60.9090 C.3   253  LEU253      0.0001
    132  CD2        9.7170   -0.8330   59.8630 C.3   253  LEU253      0.0001
    133  N         16.8180   -1.7980   59.0340 N.3   256  CYS256     -0.1235
    134  CA        17.6210   -0.9030   59.8910 C.3   256  CYS256      0.1677
    135  C         18.9320   -1.4430   60.4370 C.2   256  CYS256      0.2270
    136  O         19.7950   -0.6750   60.8030 O.2   256  CYS256     -0.2867
    137  CB        16.8030   -0.4480   61.0860 C.3   256  CYS256      0.0956
    138  SG        15.2210    0.1470   60.6460 S.3   256  CYS256     -0.0801
@<TRIPOS>BOND
     1    95    94    1
     2    95    96    1
     3    97    96    1
     4    94    93    1
     5    93    90    1
     6    89    90    1
     7    90    91    1
     8    36    34   ar
     9    59    58    2
    10    98    99    1
    11    99   100    1
    12    99   102    1
    13   100   101    2
    14    58    57    1
    15    34    33    1
    16    34    35   ar
    17    91    92    2
    18   105   103   am
    19    56    57    1
    20    33    32    1
    21    81    82    2
    22    81    80    1
    23   102   103    1
    24   103   104    2
    25    31    30    2
    26    80    83    1
    27    80    79    1
    28    32    29    1
    29    83    84    1
    30    30    29    1
    31    30    37   am
    32    29    28    1
    33    40    39    2
    34    63    62    2
    35    62    61    1
    36    84    86   ar
    37    84    85   ar
    38    39    38    1
    39    86    88   ar
    40    79    73   am
    41   133   134    1
    42    38    37    1
    43    38    41    1
    44    43    42   ar
    45    74    73    2
    46   132   130    1
    47    85    87   ar
    48   134   135    1
    49   134   137    1
    50    73    72    1
    51    88    87   ar
    52    60    61    1
    53    61    64    1
    54    64    65    1
    55   135   136    2
    56    41    42    1
    57   129   130    1
    58   129   126    1
    59    42    44   ar
    60   138   137    1
    61   130   131    1
    62   127   128    2
    63   127   126    1
    64    71    72    1
    65    72    75    1
    66   126   125    1
    67    65    66    1
    68    20    19    2
    69    75    76    1
    70   125   123   am
    71    19    18    1
    72    76    78    1
    73    76    77    1
    74    66    67    1
    75    18    21    1
    76    18    17    1
    77   123   124    2
    78   123   122    1
    79   116   115    2
    80    69    68    1
    81    21    22    1
    82    55    53    1
    83    54    53    1
    84    67    68    2
    85   122   121    1
    86    53    52    2
    87    68    70    1
    88    24    22   ar
    89    24    26   ar
    90    22    23   ar
    91   115   121   am
    92   115   114    1
    93    48    47    2
    94    52    51    1
    95    26    27   ar
    96   117   114    1
    97   117   118    1
    98    47    46    1
    99    49    46    1
   100    49    50    1
   101   114   113    1
   102    51    50    1
   103    23    25   ar
   104   118   119   ar
   105   118   120   ar
   106    12    11    2
   107    46    45    1
   108    27    25   ar
   109   113   108   am
   110   109   108    2
   111    11    10    1
   112   108   107    1
   113    13    10    1
   114    13    14    1
   115    15    14   ar
   116    10     9    1
   117     7     6    1
   118    14    16   ar
   119   107   106    1
   120   107   110    1
   121   112   110    1
   122     4     3    2
   123     5     6    1
   124     5     2    1
   125     6     8    1
   126   110   111    1
   127     3     2    1
   128     2     1    1
