@<TRIPOS>MOLECULE
tmp/2jajB00.pdb
 158 146 0 0 0
SMALL
GASTEIGER

@<TRIPOS>ATOM
      1  N          0.5290   31.6680    2.2970 N.3    34  LEU34      -0.1231
      2  CA         1.5870   32.6390    2.0600 C.3    34  LEU34       0.1693
      3  C          2.8630   31.8670    1.8060 C.2    34  LEU34       0.2591
      4  O          3.0530   30.7830    2.3410 O.2    34  LEU34      -0.2718
      5  CB         1.7470   33.5860    3.2590 C.3    34  LEU34       0.0284
      6  CG         0.4740   34.2670    3.7440 C.3    34  LEU34       0.0019
      7  CD1        0.7370   35.1090    5.0090 C.3    34  LEU34       0.0001
      8  CD2       -0.1890   35.1300    2.6370 C.3    34  LEU34       0.0001
      9  N          3.7470   32.4400    1.0090 N.am   35  ARG35      -0.1980
     10  CA         4.9760   31.8020    0.6430 C.3    35  ARG35       0.1597
     11  C          5.8330   32.8660    0.0200 C.2    35  ARG35       0.2287
     12  O          5.3310   33.9010   -0.4320 O.2    35  ARG35      -0.2864
     13  CB         4.7220   30.6600   -0.3530 C.3    35  ARG35       0.0334
     14  CG         4.3730   31.0940   -1.8010 C.3    35  ARG35       0.0492
     15  CD         3.7380   29.9560   -2.5640 C.3    35  ARG35       0.2205
     16  NE         2.3970   29.7250   -2.0480 N.pl3  35  ARG35      -0.0865
     17  CZ         1.5310   28.8580   -2.5460 C.cat  35  ARG35       0.5346
     18  NH1        1.8620   28.1140   -3.5980 N.pl3  35  ARG35       0.1354
     19  NH2        0.3300   28.7300   -1.9830 N.pl3  35  ARG35       0.1354
     20  N         -3.1850   28.7510    5.8180 N.3    75  ASP75      -0.1239
     21  CA        -1.9720   28.4800    6.6310 C.3    75  ASP75       0.1674
     22  C         -2.2510   27.8540    8.0140 C.2    75  ASP75       0.2266
     23  O         -1.3290   27.6880    8.8160 O.2    75  ASP75      -0.2867
     24  CB        -1.1380   29.7550    6.7930 C.3    75  ASP75       0.1410
     25  CG        -0.1660   29.9720    5.6560 C.2    75  ASP75       0.3668
     26  OD1        0.6990   29.0960    5.4180 O.co2  75  ASP75      -0.2456
     27  OD2       -0.2400   31.0440    5.0110 O.co2  75  ASP75      -0.2456
     28  N         -0.1730   25.4590   10.2820 N.3    78  PHE78      -0.1241
     29  CA         1.0350   25.9600   10.9620 C.3    78  PHE78       0.1605
     30  C          0.7100   26.5580   12.3500 C.2    78  PHE78       0.2264
     31  O          1.0090   27.7250   12.6500 O.2    78  PHE78      -0.2867
     32  CB         1.7840   26.8950   10.0170 C.3    78  PHE78       0.0534
     33  CG         2.2060   26.2130    8.7260 C.ar   78  PHE78      -0.0203
     34  CD1        1.8730   26.7550    7.4740 C.ar   78  PHE78      -0.0042
     35  CD2        2.9260   25.0010    8.7670 C.ar   78  PHE78      -0.0042
     36  CE1        2.2670   26.1250    6.2880 C.ar   78  PHE78      -0.0003
     37  CE2        3.3230   24.3460    7.5840 C.ar   78  PHE78      -0.0003
     38  CZ         2.9940   24.9170    6.3260 C.ar   78  PHE78      -0.0000
     39  N          1.8870   26.3560   15.2860 N.3    80  GLU80      -0.1231
     40  CA         2.9480   26.9120   16.0930 C.3    80  GLU80       0.1699
     41  C          2.9640   28.4320   16.1260 C.2    80  GLU80       0.2592
     42  O          3.0910   29.0300   17.2060 O.2    80  GLU80      -0.2718
     43  CB         4.2850   26.4110   15.6410 C.3    80  GLU80       0.0402
     44  CG         5.4340   27.2200   16.2550 C.3    80  GLU80       0.1161
     45  CD         6.7440   26.5290   16.1400 C.2    80  GLU80       0.3649
     46  OE1        7.4750   26.7650   15.1620 O.co2  80  GLU80      -0.2457
     47  OE2        7.0690   25.7100   17.0160 O.co2  80  GLU80      -0.2457
     48  N          2.8170   29.0770   14.9710 N.am   81  ASP81      -0.1974
     49  CA         2.8200   30.5350   14.9780 C.3    81  ASP81       0.1709
     50  C          1.7280   31.1870   15.8670 C.2    81  ASP81       0.2293
     51  O          1.8960   32.3300   16.3100 O.2    81  ASP81      -0.2864
     52  CB         2.8000   31.1170   13.5470 C.3    81  ASP81       0.1436
     53  CG         3.8860   30.5530   12.6740 C.2    81  ASP81       0.3671
     54  OD1        5.0890   30.6470   12.9940 O.co2  81  ASP81      -0.2456
     55  OD2        3.5420   29.9800   11.6310 O.co2  81  ASP81      -0.2456
     56  N         -3.8620   35.7970    8.8990 N.3   100  ARG100     -0.1245
     57  CA        -3.6910   34.6020    9.7340 C.3   100  ARG100      0.1563
     58  C         -4.3240   34.6850   11.1340 C.2   100  ARG100      0.2260
     59  O         -4.2710   33.7310   11.9060 O.2   100  ARG100     -0.2867
     60  CB        -2.2140   34.2910    9.8360 C.3   100  ARG100      0.0307
     61  CG        -1.6550   33.6800    8.5840 C.3   100  ARG100      0.0489
     62  CD        -0.3940   32.9100    8.8880 C.3   100  ARG100      0.2205
     63  NE        -0.6760   31.7450    9.7390 N.pl3 100  ARG100     -0.0865
     64  CZ         0.2530   30.9740   10.2790 C.cat 100  ARG100      0.5346
     65  NH1        1.5450   31.2390   10.0800 N.pl3 100  ARG100      0.1354
     66  NH2       -0.1260   29.9370   11.0290 N.pl3 100  ARG100      0.1354
     67  N          4.7910   35.8330   15.9700 N.3   129  ASP129     -0.1239
     68  CA         4.6050   34.5340   15.3370 C.3   129  ASP129      0.1674
     69  C          5.4100   33.4930   16.1400 C.2   129  ASP129      0.2266
     70  O          6.6660   33.5680   16.1760 O.2   129  ASP129     -0.2867
     71  CB         5.1870   34.5470   13.9110 C.3   129  ASP129      0.1410
     72  CG         4.1530   34.8260   12.8160 C.2   129  ASP129      0.3668
     73  OD1        3.0010   35.2290   13.0940 O.co2 129  ASP129     -0.2456
     74  OD2        4.5240   34.6240   11.6400 O.co2 129  ASP129     -0.2456
     75  N          6.7620   30.9030   15.5440 N.3   131  GLY131     -0.1225
     76  CA         7.9330   30.3550   14.8610 C.3   131  GLY131      0.1811
     77  C          9.1350   31.2710   15.0610 C.2   131  GLY131      0.2280
     78  O         10.2530   30.8990   14.7410 O.2   131  GLY131     -0.2866
     79  N          7.3300   39.4440   10.9220 N.3   147  ARG147     -0.1245
     80  CA         6.1180   38.9940   11.6170 C.3   147  ARG147      0.1563
     81  C          6.1020   39.3200   13.1040 C.2   147  ARG147      0.2260
     82  O          5.0430   39.5110   13.6870 O.2   147  ARG147     -0.2867
     83  CB         5.8960   37.4860   11.3920 C.3   147  ARG147      0.0307
     84  CG         5.7930   37.0660    9.9280 C.3   147  ARG147      0.0489
     85  CD         4.4020   37.3700    9.3910 C.3   147  ARG147      0.2205
     86  NE         4.3240   37.0990    7.9590 N.pl3 147  ARG147     -0.0865
     87  CZ         4.6350   37.8420    6.9320 C.cat 147  ARG147      0.5346
     88  NH1        5.0940   39.0760    6.9780 N.pl3 147  ARG147      0.1354
     89  NH2        4.4990   37.2960    5.7130 N.pl3 147  ARG147      0.1354
     90  N         12.1120   33.2850    9.8780 N.3   172  HIS172     -0.1241
     91  CA        11.7490   33.3090   11.2900 C.3   172  HIS172      0.1621
     92  C         12.9830   32.7830   12.0030 C.2   172  HIS172      0.2264
     93  O         13.8260   32.1360   11.3820 O.2   172  HIS172     -0.2867
     94  CB        10.5840   32.3590   11.5660 C.3   172  HIS172      0.0745
     95  CG         9.2460   32.9000   11.1730 C.ar  172  HIS172      0.0817
     96  ND1        8.8640   33.0550    9.8600 N.ar  172  HIS172     -0.2268
     97  CD2        8.1860   33.2940   11.9250 C.ar  172  HIS172      0.1154
     98  CE1        7.6270   33.5200    9.8200 C.ar  172  HIS172      0.1986
     99  NE2        7.1990   33.6890   11.0590 N.ar  172  HIS172     -0.2212
    100  N         13.4460   30.2480   13.9210 N.3   174  LYS174     -0.1231
    101  CA        13.5650   28.7970   13.8680 C.3   174  LYS174      0.1693
    102  C         13.5790   28.2510   12.4370 C.2   174  LYS174      0.2592
    103  O         13.4510   27.0480   12.2320 O.2   174  LYS174     -0.2718
    104  CB        12.4820   28.1230   14.7270 C.3   174  LYS174      0.0285
    105  CG        12.6940   28.1990   16.2630 C.3   174  LYS174      0.0035
    106  CD        12.1560   26.9290   16.9420 C.3   174  LYS174      0.0206
    107  CE        10.6250   26.8720   16.9530 C.3   174  LYS174      0.1093
    108  NZ         9.9520   27.4540   18.1520 N.3   174  LYS174     -0.1314
    109  N         13.7690   29.1370   11.4500 N.am  175  SER175     -0.1952
    110  CA        14.0660   28.7100   10.0680 C.3   175  SER175      0.1924
    111  C         15.4470   28.0320    9.9100 C.2   175  SER175      0.2314
    112  O         15.6750   27.3130    8.9230 O.2   175  SER175     -0.2863
    113  CB        13.9190   29.8760    9.0580 C.3   175  SER175      0.2116
    114  OG        12.7100   30.6190    9.2470 O.3   175  SER175     -0.2180
    115  N         15.9800   22.6230   11.7050 N.3   220  ASN220     -0.1240
    116  CA        14.6960   22.6820   12.3640 C.3   220  ASN220      0.1653
    117  C         14.2150   21.2530   12.5220 C.2   220  ASN220      0.2266
    118  O         13.8560   20.5810   11.5460 O.2   220  ASN220     -0.2867
    119  CB        13.7250   23.5400   11.5500 C.3   220  ASN220      0.1155
    120  CG        12.3410   23.6310   12.1670 C.2   220  ASN220      0.2627
    121  OD1       11.5220   22.7210   12.0080 O.2   220  ASN220     -0.2716
    122  ND2       12.0490   24.7540   12.8140 N.am  220  ASN220     -0.0877
    123  N          5.9270   26.1360    1.2400 N.3   267  VAL267     -0.1231
    124  CA         5.2130   27.2660    1.8210 C.3   267  VAL267      0.1692
    125  C          5.8120   27.6640    3.1990 C.2   267  VAL267      0.2592
    126  O          5.1390   28.2630    4.0580 O.2   267  VAL267     -0.2718
    127  CB         3.6560   27.0650    1.8420 C.3   267  VAL267      0.0266
    128  CG1        3.0800   27.1090    0.4120 C.3   267  VAL267      0.0020
    129  CG2        3.2620   25.7830    2.5440 C.3   267  VAL267      0.0020
    130  N          7.0960   27.3410    3.3620 N.am  268  ASP268     -0.1974
    131  CA         7.8710   27.7050    4.5400 C.3   268  ASP268      0.1709
    132  C          7.4140   26.9690    5.8070 C.2   268  ASP268      0.2293
    133  O          7.6440   27.4530    6.9100 O.2   268  ASP268     -0.2864
    134  CB         7.8540   29.2300    4.7530 C.3   268  ASP268      0.1436
    135  CG         8.1910   29.9950    3.4900 C.2   268  ASP268      0.3671
    136  OD1        9.1680   29.6090    2.7960 O.co2 268  ASP268     -0.2456
    137  OD2        7.4530   30.9750    3.1810 O.co2 268  ASP268     -0.2456
    138  N          8.0320   23.9430    8.2140 N.3   270  LEU270     -0.1245
    139  CA         9.0820   22.9980    8.6070 C.3   270  LEU270      0.1561
    140  C          8.5810   22.1060    9.7580 C.2   270  LEU270      0.2260
    141  O          7.4030   22.1440   10.1000 O.2   270  LEU270     -0.2867
    142  CB        10.3650   23.7500    8.9800 C.3   270  LEU270      0.0270
    143  CG        10.7380   24.9880    8.1450 C.3   270  LEU270      0.0019
    144  CD1       12.0200   25.6300    8.6450 C.3   270  LEU270      0.0001
    145  CD2       10.8690   24.6040    6.6960 C.3   270  LEU270      0.0001
    146  N          9.0140   21.9830   13.1860 N.3   272  THR272     -0.1203
    147  CA         8.4190   22.6280   14.3740 C.3   272  THR272      0.1994
    148  C          7.1060   23.3310   14.1490 C.2   272  THR272      0.2618
    149  O          6.3240   23.4590   15.0800 O.2   272  THR272     -0.2717
    150  CB         9.3500   23.6480   15.0520 C.3   272  THR272      0.1784
    151  OG1        9.5130   24.8080   14.2100 O.3   272  THR272     -0.2211
    152  CG2       10.6690   23.0140   15.4150 C.3   272  THR272      0.0376
    153  N          6.8810   23.8260   12.9250 N.am  273  CYS273     -0.1969
    154  CA         5.6700   24.5960   12.6030 C.3   273  CYS273      0.1712
    155  C          4.3710   23.8500   12.7420 C.2   273  CYS273      0.2296
    156  O          3.3360   24.4550   12.9440 O.2   273  CYS273     -0.2864
    157  CB         5.7320   25.1960   11.1680 C.3   273  CYS273      0.0983
    158  SG         7.2840   25.9610   10.7360 S.3   273  CYS273     -0.0798
@<TRIPOS>BOND
     1    18    17    1
     2    15    16    1
     3    15    14    1
     4    17    16    2
     5    17    19    1
     6    14    13    1
     7    12    11    2
     8    13    10    1
     9    11    10    1
    10   128   127    1
    11    10     9    1
    12     9     3   am
    13   123   124    1
    14     3     2    1
    15     3     4    2
    16   124   127    1
    17   124   125    1
    18   127   129    1
    19     2     1    1
    20     2     5    1
    21     8     6    1
    22   136   135   ar
    23   137   135   ar
    24   125   130   am
    25   125   126    2
    26     5     6    1
    27   130   131    1
    28   135   134    1
    29     6     7    1
    30   131   134    1
    31   131   132    1
    32    27    25   ar
    33    26    25   ar
    34    25    24    1
    35    89    87    1
    36   132   133    2
    37    20    21    1
    38    36    38   ar
    39    36    34   ar
    40    38    37   ar
    41    21    24    1
    42    21    22    1
    43   145   143    1
    44    87    88    1
    45    87    86    2
    46    34    33   ar
    47    37    35   ar
    48    86    85    1
    49    22    23    2
    50   143   144    1
    51   143   142    1
    52   138   139    1
    53    61    62    1
    54    61    60    1
    55   139   142    1
    56   139   140    1
    57    33    35   ar
    58    33    32    1
    59    62    63    1
    60    56    57    1
    61   112   111    2
    62   113   114    1
    63   113   110    1
    64    85    84    1
    65    57    60    1
    66    57    58    1
    67    63    64    2
    68   140   141    2
    69    98    96   ar
    70    98    99   ar
    71    96    95   ar
    72    90    91    1
    73   111   110    1
    74    84    83    1
    75    32    29    1
    76   110   109    1
    77    65    64    1
    78    64    66    1
    79    28    29    1
    80   158   157    1
    81    79    80    1
    82    29    30    1
    83    99    97   ar
    84    58    59    2
    85   157   154    1
    86    95    94    1
    87    95    97   ar
    88    91    94    1
    89    91    92    1
    90    93    92    2
    91    83    80    1
    92   109   102   am
    93   118   117    2
    94   119   120    1
    95   119   116    1
    96    80    81    1
    97    55    53   ar
    98    74    72   ar
    99   115   116    1
   100   121   120    2
   101   120   122   am
   102   103   102    2
   103    30    31    2
   104   116   117    1
   105   102   101    1
   106   154   155    1
   107   154   153    1
   108    53    54   ar
   109    53    52    1
   110   155   156    2
   111    72    73   ar
   112    72    71    1
   113   153   148   am
   114    81    82    2
   115   146   147    1
   116    52    49    1
   117   101   100    1
   118   101   104    1
   119    71    68    1
   120   148   147    1
   121   148   149    2
   122   151   150    1
   123   147   150    1
   124   104   105    1
   125    78    77    2
   126    76    77    1
   127    76    75    1
   128    48    49    1
   129    48    41   am
   130    49    50    1
   131   150   152    1
   132    46    45   ar
   133    39    40    1
   134    68    67    1
   135    68    69    1
   136    43    40    1
   137    43    44    1
   138    50    51    2
   139    40    41    1
   140    41    42    2
   141    45    44    1
   142    45    47   ar
   143    69    70    2
   144   105   106    1
   145   106   107    1
   146   107   108    1
