@<TRIPOS>MOLECULE
tmp/2jalB00.pdb
 144 145 0 0 0
SMALL
GASTEIGER

@<TRIPOS>ATOM
      1  N        -17.3290  -32.1130  -14.8040 N.3    19  GLN19      -0.1245
      2  CA       -18.0280  -30.8440  -14.7340 C.3    19  GLN19       0.1566
      3  C        -17.5730  -29.8810  -15.8490 C.2    19  GLN19       0.2260
      4  O        -18.3200  -28.9910  -16.2380 O.2    19  GLN19      -0.2867
      5  CB       -17.8940  -30.2200  -13.3550 C.3    19  GLN19       0.0367
      6  CG       -18.5020  -31.0810  -12.2590 C.3    19  GLN19       0.0905
      7  CD       -18.4720  -30.4340  -10.9430 C.2    19  GLN19       0.2608
      8  OE1      -17.5810  -30.6940  -10.1370 O.2    19  GLN19      -0.2717
      9  NE2      -19.4560  -29.5820  -10.6790 N.am   19  GLN19      -0.0878
     10  N         -6.4150  -27.5460   -8.3620 N.3    76  ARG76      -0.1245
     11  CA        -6.9980  -28.8170   -8.0040 C.3    76  ARG76       0.1563
     12  C         -7.9160  -29.2500   -9.1530 C.2    76  ARG76       0.2260
     13  O         -8.9050  -28.5890   -9.4460 O.2    76  ARG76      -0.2867
     14  CB        -7.7660  -28.6720   -6.6920 C.3    76  ARG76       0.0307
     15  CG        -8.2960  -29.9900   -6.1350 C.3    76  ARG76       0.0489
     16  CD        -9.3100  -29.7830   -5.0230 C.3    76  ARG76       0.2205
     17  NE        -9.9590  -31.0750   -4.8520 N.pl3  76  ARG76      -0.0865
     18  CZ       -11.2010  -31.2870   -4.4450 C.cat  76  ARG76       0.5346
     19  NH1      -12.0070  -30.2890   -4.1010 N.pl3  76  ARG76       0.1354
     20  NH2      -11.6290  -32.5450   -4.3800 N.pl3  76  ARG76       0.1354
     21  N        -13.4580  -38.0900   -8.4930 N.3   120  HIS120     -0.1226
     22  CA       -14.4600  -37.0490   -8.2620 C.3   120  HIS120      0.1752
     23  C        -15.7610  -37.4360   -8.9670 C.2   120  HIS120      0.2596
     24  O        -16.3250  -36.6480   -9.7430 O.2   120  HIS120     -0.2718
     25  CB       -13.9030  -35.6600   -8.7130 C.3   120  HIS120      0.0759
     26  CG       -14.6260  -34.4820   -8.1410 C.ar  120  HIS120      0.0818
     27  ND1      -13.9620  -33.3940   -7.6160 N.ar  120  HIS120     -0.2268
     28  CD2      -15.9470  -34.2110   -8.0110 C.ar  120  HIS120      0.1154
     29  CE1      -14.8420  -32.5100   -7.1860 C.ar  120  HIS120      0.1986
     30  NE2      -16.0550  -32.9750   -7.4310 N.ar  120  HIS120     -0.2212
     31  N        -16.1960  -38.6870   -8.7070 N.am  121  TRP121     -0.1976
     32  CA       -17.5950  -39.1560   -8.8890 C.3   121  TRP121      0.1640
     33  C        -17.9090  -39.8250  -10.2350 C.2   121  TRP121      0.2290
     34  O        -19.0070  -40.3880  -10.4210 O.2   121  TRP121     -0.2864
     35  CB       -18.6470  -38.0590   -8.6020 C.3   121  TRP121      0.0576
     36  CG       -18.4960  -37.2770   -7.3160 C.ar  121  TRP121      0.0006
     37  CD1      -17.6450  -37.5400   -6.2740 C.ar  121  TRP121      0.0946
     38  CD2      -19.2800  -36.1260   -6.9110 C.ar  121  TRP121      0.0152
     39  NE1      -17.8240  -36.6140   -5.2740 N.ar  121  TRP121     -0.2442
     40  CE2      -18.8330  -35.7500   -5.6230 C.ar  121  TRP121      0.0810
     41  CE3      -20.3390  -35.4120   -7.4940 C.ar  121  TRP121      0.0012
     42  CZ2      -19.3760  -34.6560   -4.9240 C.ar  121  TRP121      0.0191
     43  CZ3      -20.8920  -34.3210   -6.7980 C.ar  121  TRP121      0.0001
     44  CH2      -20.4080  -33.9530   -5.5250 C.ar  121  TRP121      0.0015
     45  N        -12.9140  -37.3760   -3.4530 N.3   164  ASN164     -0.1225
     46  CA       -13.7120  -36.1950   -3.1860 C.3   164  ASN164      0.1785
     47  C        -15.0560  -36.5330   -2.5540 C.2   164  ASN164      0.2597
     48  O        -15.9160  -37.1360   -3.1990 O.2   164  ASN164     -0.2718
     49  CB       -13.9220  -35.4170   -4.4820 C.3   164  ASN164      0.1169
     50  CG       -14.7050  -34.1310   -4.2740 C.2   164  ASN164      0.2627
     51  OD1      -14.1430  -33.1120   -3.8550 O.2   164  ASN164     -0.2716
     52  ND2      -15.9950  -34.1620   -4.6090 N.am  164  ASN164     -0.0877
     53  N        -15.2320  -36.1170   -1.2960 N.am  165  GLU165     -0.1979
     54  CA       -16.5240  -36.0750   -0.5990 C.3   165  GLU165      0.1602
     55  C        -17.2180  -37.4310   -0.6260 C.2   165  GLU165      0.2287
     56  O        -18.2930  -37.5440   -1.2080 O.2   165  GLU165     -0.2864
     57  CB       -17.4710  -34.9570   -1.1530 C.3   165  GLU165      0.0415
     58  CG       -16.8500  -33.5300   -1.0700 C.3   165  GLU165      0.1163
     59  CD       -17.7840  -32.3970   -1.5210 C.2   165  GLU165      0.3649
     60  OE1      -18.6120  -32.6000   -2.4320 O.co2 165  GLU165     -0.2457
     61  OE2      -17.6570  -31.2650   -0.9830 O.co2 165  GLU165     -0.2457
     62  N        -19.3250  -24.6660    2.3480 N.3   294  TYR294     -0.1241
     63  CA       -20.0850  -23.6280    1.6710 C.3   294  TYR294      0.1605
     64  C        -21.2920  -23.1180    2.4600 C.2   294  TYR294      0.2264
     65  O        -21.7450  -22.0020    2.2240 O.2   294  TYR294     -0.2867
     66  CB       -20.4710  -24.0640    0.2560 C.3   294  TYR294      0.0534
     67  CG       -20.8890  -25.5050    0.1490 C.ar  294  TYR294     -0.0201
     68  CD1      -19.9870  -26.4910   -0.2610 C.ar  294  TYR294     -0.0009
     69  CD2      -22.1870  -25.8910    0.4790 C.ar  294  TYR294     -0.0009
     70  CE1      -20.3820  -27.8480   -0.3500 C.ar  294  TYR294      0.0417
     71  CE2      -22.5990  -27.2280    0.3960 C.ar  294  TYR294      0.0417
     72  CZ       -21.6910  -28.2060   -0.0160 C.ar  294  TYR294      0.1957
     73  OH       -22.1280  -29.5290   -0.0830 O.3   294  TYR294     -0.2866
     74  N        -28.4850  -21.8020   -0.4590 N.3   323  TRP323     -0.1241
     75  CA       -27.6670  -22.1590    0.6990 C.3   323  TRP323      0.1605
     76  C        -27.3790  -20.9300    1.5400 C.2   323  TRP323      0.2264
     77  O        -26.9460  -19.9040    1.0090 O.2   323  TRP323     -0.2867
     78  CB       -26.3300  -22.7610    0.2750 C.3   323  TRP323      0.0550
     79  CG       -26.3950  -24.0670   -0.4400 C.ar  323  TRP323      0.0003
     80  CD1      -27.4160  -24.9650   -0.4240 C.ar  323  TRP323      0.0946
     81  CD2      -25.3640  -24.6420   -1.2590 C.ar  323  TRP323      0.0152
     82  NE1      -27.1020  -26.0530   -1.2020 N.ar  323  TRP323     -0.2442
     83  CE2      -25.8480  -25.8850   -1.7240 C.ar  323  TRP323      0.0810
     84  CE3      -24.0830  -24.2170   -1.6580 C.ar  323  TRP323      0.0012
     85  CZ2      -25.0900  -26.7250   -2.5490 C.ar  323  TRP323      0.0191
     86  CZ3      -23.3310  -25.0430   -2.4860 C.ar  323  TRP323      0.0001
     87  CH2      -23.8370  -26.2910   -2.9200 C.ar  323  TRP323      0.0015
     88  N        -12.3290  -26.7250   -1.3230 N.3   350  GLU350     -0.1245
     89  CA       -13.4950  -26.2470   -2.0370 C.3   350  GLU350      0.1567
     90  C        -14.1810  -25.1900   -1.1930 C.2   350  GLU350      0.2260
     91  O        -14.6180  -25.4500   -0.0720 O.2   350  GLU350     -0.2867
     92  CB       -14.4960  -27.4020   -2.3030 C.3   350  GLU350      0.0388
     93  CG       -15.6560  -27.0220   -3.1770 C.3   350  GLU350      0.1160
     94  CD       -16.8960  -27.9290   -3.0540 C.2   350  GLU350      0.3649
     95  OE1      -17.4310  -28.1110   -1.9410 O.co2 350  GLU350     -0.2457
     96  OE2      -17.4050  -28.3960   -4.2020 O.co2 350  GLU350     -0.2457
     97  N        -13.8430  -22.7790   -5.2970 N.3   397  TRP397     -0.1241
     98  CA       -14.6750  -23.4700   -6.2460 C.3   397  TRP397      0.1605
     99  C        -15.5360  -22.4280   -6.9290 C.2   397  TRP397      0.2264
    100  O        -16.3620  -21.8150   -6.2620 O.2   397  TRP397     -0.2867
    101  CB       -15.5940  -24.5100   -5.5690 C.3   397  TRP397      0.0550
    102  CG       -16.3230  -25.3090   -6.6330 C.ar  397  TRP397      0.0003
    103  CD1      -17.5380  -25.0230   -7.1770 C.ar  397  TRP397      0.0946
    104  CD2      -15.8330  -26.4580   -7.3260 C.ar  397  TRP397      0.0152
    105  NE1      -17.8500  -25.9300   -8.1630 N.ar  397  TRP397     -0.2442
    106  CE2      -16.8190  -26.8250   -8.2790 C.ar  397  TRP397      0.0810
    107  CE3      -14.6730  -27.2310   -7.2230 C.ar  397  TRP397      0.0012
    108  CZ2      -16.6720  -27.9360   -9.1330 C.ar  397  TRP397      0.0191
    109  CZ3      -14.5350  -28.3370   -8.0700 C.ar  397  TRP397      0.0001
    110  CH2      -15.5310  -28.6780   -9.0010 C.ar  397  TRP397      0.0015
    111  N        -23.1120  -28.2620  -12.9700 N.3   404  GLU404     -0.1231
    112  CA       -23.4320  -28.4230  -11.5520 C.3   404  GLU404      0.1699
    113  C        -24.2760  -29.6730  -11.2040 C.2   404  GLU404      0.2592
    114  O        -25.2760  -29.5850  -10.4920 O.2   404  GLU404     -0.2718
    115  CB       -24.0790  -27.1590  -10.9900 C.3   404  GLU404      0.0402
    116  CG       -24.3400  -27.2210   -9.4620 C.3   404  GLU404      0.1161
    117  CD       -23.1150  -27.6680   -8.6430 C.2   404  GLU404      0.3649
    118  OE1      -21.9530  -27.4200   -9.0590 O.co2 404  GLU404     -0.2457
    119  OE2      -23.3120  -28.2390   -7.5520 O.co2 404  GLU404     -0.2457
    120  N        -23.8490  -30.8350  -11.6960 N.am  405  TRP405     -0.1976
    121  CA       -24.4460  -32.1240  -11.2780 C.3   405  TRP405      0.1640
    122  C        -25.9620  -32.1880  -11.5940 C.2   405  TRP405      0.2290
    123  O        -26.3420  -31.9370  -12.7630 O.2   405  TRP405     -0.2864
    124  CB       -24.0770  -32.4350   -9.8170 C.3   405  TRP405      0.0576
    125  CG       -22.5550  -32.4340   -9.5770 C.ar  405  TRP405      0.0006
    126  CD1      -21.8510  -31.6220   -8.7020 C.ar  405  TRP405      0.0946
    127  CD2      -21.5750  -33.2670  -10.2130 C.ar  405  TRP405      0.0152
    128  NE1      -20.5060  -31.9150   -8.7680 N.ar  405  TRP405     -0.2442
    129  CE2      -20.3070  -32.9030   -9.6930 C.ar  405  TRP405      0.0810
    130  CE3      -21.6380  -34.2790  -11.1910 C.ar  405  TRP405      0.0012
    131  CZ2      -19.1310  -33.5330  -10.0920 C.ar  405  TRP405      0.0191
    132  CZ3      -20.4580  -34.8940  -11.5940 C.ar  405  TRP405      0.0001
    133  CH2      -19.2250  -34.5110  -11.0600 C.ar  405  TRP405      0.0015
    134  N        -20.7410  -21.1880  -10.6000 N.3   413  PHE413     -0.1241
    135  CA       -19.8760  -21.1270   -9.4180 C.3   413  PHE413      0.1605
    136  C        -18.5670  -20.4480   -9.7600 C.2   413  PHE413      0.2264
    137  O        -17.7940  -20.1320   -8.8730 O.2   413  PHE413     -0.2867
    138  CB       -19.5800  -22.5510   -8.8750 C.3   413  PHE413      0.0534
    139  CG       -20.5760  -23.0300   -7.8640 C.ar  413  PHE413     -0.0203
    140  CD1      -21.7150  -23.7480   -8.2610 C.ar  413  PHE413     -0.0042
    141  CD2      -20.3930  -22.7550   -6.5110 C.ar  413  PHE413     -0.0042
    142  CE1      -22.6430  -24.1760   -7.3360 C.ar  413  PHE413     -0.0003
    143  CE2      -21.3300  -23.1870   -5.5640 C.ar  413  PHE413     -0.0003
    144  CZ       -22.4660  -23.9020   -5.9870 C.ar  413  PHE413     -0.0000
@<TRIPOS>BOND
     1     4     3    2
     2     3     2    1
     3     1     2    1
     4     2     5    1
     5     5     6    1
     6   111   112    1
     7   123   122    2
     8     6     7    1
     9   120   121    1
    10   120   113   am
    11   122   121    1
    12   132   130   ar
    13   132   133   ar
    14   112   113    1
    15   112   115    1
    16   121   124    1
    17   113   114    2
    18   130   127   ar
    19   133   131   ar
    20   115   116    1
    21     7     9   am
    22     7     8    2
    23   134   135    1
    24    34    33    2
    25    33    32    1
    26   127   129   ar
    27   127   125   ar
    28   131   129   ar
    29   124   125    1
    30   136   135    1
    31   136   137    2
    32    24    23    2
    33   129   128   ar
    34   125   126   ar
    35   116   117    1
    36    13    12    2
    37   135   138    1
    38    12    11    1
    39   108   110   ar
    40   108   106   ar
    41   118   117   ar
    42   110   109   ar
    43    23    31   am
    44    23    22    1
    45    32    31    1
    46    32    35    1
    47   138   139    1
    48   128   126   ar
    49    25    22    1
    50    25    26    1
    51   117   119   ar
    52    35    36    1
    53    21    22    1
    54    10    11    1
    55   106   105   ar
    56   106   104   ar
    57   140   139   ar
    58   140   142   ar
    59   105   103   ar
    60    26    28   ar
    61    26    27   ar
    62   109   107   ar
    63    28    30   ar
    64    11    14    1
    65   139   141   ar
    66    27    29   ar
    67    41    38   ar
    68    41    43   ar
    69    30    29   ar
    70   142   144   ar
    71   104   107   ar
    72   104   102   ar
    73    36    38   ar
    74    36    37   ar
    75   103   102   ar
    76    99   100    2
    77    99    98    1
    78    38    40   ar
    79    43    44   ar
    80    14    15    1
    81   102   101    1
    82   141   143   ar
    83    37    39   ar
    84    98   101    1
    85    98    97    1
    86    15    16    1
    87   144   143   ar
    88    40    39   ar
    89    40    42   ar
    90    44    42   ar
    91    16    17    1
    92    17    18    2
    93    52    50   am
    94    49    50    1
    95    49    46    1
    96    18    20    1
    97    18    19    1
    98    50    51    2
    99    96    94   ar
   100    45    46    1
   101    48    47    2
   102    46    47    1
   103    93    94    1
   104    93    92    1
   105    94    95   ar
   106    87    85   ar
   107    87    86   ar
   108    47    53   am
   109    85    83   ar
   110    86    84   ar
   111    60    59   ar
   112    92    89    1
   113    89    88    1
   114    89    90    1
   115    83    81   ar
   116    83    82   ar
   117    84    81   ar
   118    59    58    1
   119    59    61   ar
   120    53    54    1
   121    81    79   ar
   122    56    55    2
   123    82    80   ar
   124    90    91    2
   125    57    58    1
   126    57    54    1
   127    55    54    1
   128    74    75    1
   129    79    80   ar
   130    79    78    1
   131    70    68   ar
   132    70    72   ar
   133    68    67   ar
   134    73    72    1
   135    72    71   ar
   136    67    66    1
   137    67    69   ar
   138    66    63    1
   139    78    75    1
   140    71    69   ar
   141    75    76    1
   142    77    76    2
   143    63    62    1
   144    63    64    1
   145    65    64    2
