@<TRIPOS>MOLECULE
tmp/2jamB00.pdb
 115 111 0 0 0
SMALL
GASTEIGER

@<TRIPOS>ATOM
      1  N         15.3120   37.1140   36.9920 N.3     1  THR1       -0.1203
      2  CA        15.2800   35.9470   36.0590 C.3     1  THR1        0.1994
      3  C         15.6560   34.6500   36.7810 C.2     1  THR1        0.2618
      4  O         16.1440   34.6700   37.9100 O.2     1  THR1       -0.2717
      5  CB        16.2350   36.1540   34.8630 C.3     1  THR1        0.1784
      6  OG1       17.5530   36.3080   35.3660 O.3     1  THR1       -0.2211
      7  CG2       15.8400   37.3510   34.0200 C.3     1  THR1        0.0376
      8  N         15.4070   33.5250   36.1190 N.am    2  THR2       -0.1952
      9  CA        15.7930   32.2080   36.6220 C.3     2  THR2        0.1897
     10  C         16.3780   31.3840   35.4810 C.2     2  THR2        0.2313
     11  O         16.0260   31.5940   34.3130 O.2     2  THR2       -0.2863
     12  CB        14.5780   31.4480   37.2090 C.3     2  THR2        0.1794
     13  OG1       13.6130   31.2860   36.1810 O.3     2  THR2       -0.2208
     14  CG2       13.9760   32.1710   38.3990 C.3     2  THR2        0.0378
     15  N         16.0060   27.7950   34.3940 N.3     4  ILE4       -0.1245
     16  CA        15.1370   26.6470   34.6410 C.3     4  ILE4        0.1561
     17  C         16.0000   25.4000   34.8660 C.2     4  ILE4        0.2260
     18  O         15.7360   24.6120   35.7640 O.2     4  ILE4       -0.2867
     19  CB        14.1050   26.4700   33.4670 C.3     4  ILE4        0.0252
     20  CG1       12.7790   25.9050   33.9830 C.3     4  ILE4        0.0019
     21  CG2       14.6780   25.6260   32.3280 C.3     4  ILE4        0.0019
     22  CD1       11.9210   26.9370   34.6670 C.3     4  ILE4        0.0001
     23  N         -1.5770   32.1560   24.6230 N.3    45  GLU45      -0.1245
     24  CA        -1.4410   33.1210   25.6970 C.3    45  GLU45       0.1567
     25  C         -2.7830   33.3380   26.4210 C.2    45  GLU45       0.2260
     26  O         -2.8090   33.4430   27.6500 O.2    45  GLU45      -0.2867
     27  CB        -0.8480   34.4460   25.1560 C.3    45  GLU45       0.0388
     28  CG        -0.5040   35.4360   26.2520 C.3    45  GLU45       0.1160
     29  CD         0.1390   36.7270   25.7370 C.2    45  GLU45       0.3649
     30  OE1        0.3430   36.8520   24.5170 O.co2  45  GLU45      -0.2457
     31  OE2        0.4350   37.6110   26.5680 O.co2  45  GLU45      -0.2457
     32  N         -3.5440   30.2120   28.7260 N.3    48  ILE48      -0.1245
     33  CA        -2.7200   30.3710   29.9310 C.3    48  ILE48       0.1561
     34  C         -3.3600   31.3520   30.9120 C.2    48  ILE48       0.2260
     35  O         -3.4490   31.0690   32.1070 O.2    48  ILE48      -0.2867
     36  CB        -1.2860   30.8120   29.5830 C.3    48  ILE48       0.0252
     37  CG1       -0.5150   29.6340   28.9720 C.3    48  ILE48       0.0019
     38  CG2       -0.5650   31.3250   30.8200 C.3    48  ILE48       0.0019
     39  CD1        0.8230   30.0120   28.3590 C.3    48  ILE48       0.0001
     40  N         -4.5090   30.1020   34.7340 N.3    52  LYS52      -0.1245
     41  CA        -4.1680   30.7660   36.0000 C.3    52  LYS52       0.1561
     42  C         -5.3630   30.9750   36.9320 C.2    52  LYS52       0.2260
     43  O         -5.2080   30.9230   38.1450 O.2    52  LYS52      -0.2867
     44  CB        -3.5400   32.1360   35.7370 C.3    52  LYS52       0.0271
     45  CG        -2.1570   32.0920   35.1450 C.3    52  LYS52       0.0035
     46  CD        -1.6430   33.5100   34.8710 C.3    52  LYS52       0.0206
     47  CE        -0.4130   33.4550   34.0090 C.3    52  LYS52       0.1093
     48  NZ         0.1630   34.8250   33.7590 N.3    52  LYS52      -0.1314
     49  N          3.2000   27.2250   38.7920 N.3    64  ASP64      -0.1225
     50  CA         4.0280   28.3570   38.3530 C.3    64  ASP64       0.1805
     51  C          4.1940   28.3230   36.8360 C.2    64  ASP64       0.2598
     52  O          4.1310   27.2440   36.2150 O.2    64  ASP64      -0.2718
     53  CB         5.4280   28.3080   38.9940 C.3    64  ASP64       0.1424
     54  CG         5.5140   29.0890   40.3090 C.2    64  ASP64       0.3668
     55  OD1        4.9110   30.1870   40.4320 O.co2  64  ASP64      -0.2456
     56  OD2        6.1950   28.5830   41.2230 O.co2  64  ASP64      -0.2456
     57  N          4.4370   29.5050   36.2570 N.am   65  ILE65      -0.1966
     58  CA         4.6890   29.6440   34.8240 C.3    65  ILE65       0.1727
     59  C          5.9780   30.4270   34.6840 C.2    65  ILE65       0.2616
     60  O          6.1360   31.4770   35.3180 O.2    65  ILE65      -0.2715
     61  CB         3.5560   30.4070   34.1020 C.3    65  ILE65       0.0290
     62  CG1        2.2610   29.6180   34.1820 C.3    65  ILE65       0.0022
     63  CG2        3.9120   30.6880   32.6370 C.3    65  ILE65       0.0023
     64  CD1        1.1080   30.2060   33.3990 C.3    65  ILE65       0.0001
     65  N          6.9110   29.8890   33.9110 N.am   66  TYR66      -0.1960
     66  CA         8.0760   30.6410   33.4750 C.3    66  TYR66       0.1771
     67  C          7.9840   30.8270   31.9640 C.2    66  TYR66       0.2619
     68  O          7.4260   29.9870   31.2540 O.2    66  TYR66      -0.2715
     69  CB         9.3630   29.9100   33.8240 C.3    66  TYR66       0.0574
     70  CG         9.5550   29.6910   35.2980 C.ar   66  TYR66      -0.0198
     71  CD1       10.1040   30.6890   36.1040 C.ar   66  TYR66      -0.0009
     72  CD2        9.1820   28.4900   35.8970 C.ar   66  TYR66      -0.0009
     73  CE1       10.2760   30.4900   37.4730 C.ar   66  TYR66       0.0417
     74  CE2        9.3430   28.2860   37.2730 C.ar   66  TYR66       0.0417
     75  CZ         9.8920   29.2900   38.0540 C.ar   66  TYR66       0.1957
     76  OH        10.0650   29.0990   39.4150 O.3    66  TYR66      -0.2866
     77  N          8.5430   31.9260   31.4660 N.am   67  GLU67      -0.1963
     78  CA         8.4950   32.1960   30.0430 C.3    67  GLU67       0.1733
     79  C          9.8070   32.7320   29.5160 C.2    67  GLU67       0.2617
     80  O         10.4180   33.6080   30.1300 O.2    67  GLU67      -0.2715
     81  CB         7.3790   33.1840   29.7430 C.3    67  GLU67       0.0429
     82  CG         7.2240   33.4870   28.2900 C.3    67  GLU67       0.1163
     83  CD         6.1470   34.5110   27.9940 C.2    67  GLU67       0.3649
     84  OE1        5.5000   35.0210   28.9370 O.co2  67  GLU67      -0.2457
     85  OE2        5.9370   34.8070   26.7960 O.co2  67  GLU67      -0.2457
     86  N         10.2160   32.1900   28.3690 N.am   68  SER68      -0.1950
     87  CA        11.3910   32.6460   27.6250 C.3    68  SER68       0.1924
     88  C         10.9080   33.1710   26.2860 C.2    68  SER68       0.2314
     89  O          9.7080   33.1870   26.0080 O.2    68  SER68      -0.2863
     90  CB        12.3570   31.4800   27.4170 C.3    68  SER68       0.2116
     91  OG        11.9160   30.6230   26.3890 O.3    68  SER68      -0.2180
     92  N          7.0750   28.4670   26.8400 N.3    72  TYR72      -0.1227
     93  CA         6.4250   28.5050   28.1610 C.3    72  TYR72       0.1736
     94  C          6.8170   27.2500   28.9390 C.2    72  TYR72       0.2595
     95  O          6.9030   26.1640   28.3620 O.2    72  TYR72      -0.2718
     96  CB         4.9180   28.5230   28.0170 C.3    72  TYR72       0.0548
     97  CG         4.3380   29.8240   27.5610 C.ar   72  TYR72      -0.0200
     98  CD1        4.2180   30.8900   28.4440 C.ar   72  TYR72      -0.0009
     99  CD2        3.8710   29.9860   26.2630 C.ar   72  TYR72      -0.0009
    100  CE1        3.6690   32.0850   28.0460 C.ar   72  TYR72       0.0417
    101  CE2        3.3180   31.1840   25.8550 C.ar   72  TYR72       0.0417
    102  CZ         3.2230   32.2260   26.7570 C.ar   72  TYR72       0.1957
    103  OH         2.6790   33.4170   26.3610 O.3    72  TYR72      -0.2866
    104  N          7.0590   27.4030   30.2400 N.am   73  TYR73      -0.1976
    105  CA         7.3450   26.2830   31.1340 C.3    73  TYR73       0.1639
    106  C          6.3180   26.2710   32.2640 C.2    73  TYR73       0.2290
    107  O          6.3040   27.1500   33.1210 O.2    73  TYR73      -0.2864
    108  CB         8.7480   26.3960   31.7310 C.3    73  TYR73       0.0560
    109  CG         9.8510   26.4560   30.7080 C.ar   73  TYR73      -0.0198
    110  CD1       10.4130   25.2880   30.2120 C.ar   73  TYR73      -0.0009
    111  CD2       10.3370   27.6850   30.2280 C.ar   73  TYR73      -0.0009
    112  CE1       11.4220   25.3140   29.2830 C.ar   73  TYR73       0.0417
    113  CE2       11.3550   27.7210   29.2880 C.ar   73  TYR73       0.0417
    114  CZ        11.8930   26.5280   28.8220 C.ar   73  TYR73       0.1957
    115  OH        12.8940   26.5190   27.8900 O.3    73  TYR73      -0.2866
@<TRIPOS>BOND
     1    30    29   ar
     2    23    24    1
     3    27    24    1
     4    27    28    1
     5    24    25    1
     6    29    28    1
     7    29    31   ar
     8   101    99   ar
     9   101   102   ar
    10    89    88    2
    11    99    97   ar
    12    88    87    1
    13   103   102    1
    14    91    90    1
    15    25    26    2
    16   102   100   ar
    17    85    83   ar
    18    92    93    1
    19    90    87    1
    20    97    96    1
    21    97    98   ar
    22    87    86    1
    23   115   114    1
    24    83    82    1
    25    83    84   ar
    26    96    93    1
    27   100    98   ar
    28    93    94    1
    29    82    81    1
    30    39    37    1
    31    95    94    2
    32    86    79   am
    33    32    33    1
    34   114   112   ar
    35   114   113   ar
    36    94   104   am
    37    37    36    1
    38   112   110   ar
    39   113   111   ar
    40    79    78    1
    41    79    80    2
    42    36    33    1
    43    36    38    1
    44    81    78    1
    45    33    34    1
    46    78    77    1
    47   110   109   ar
    48   111   109   ar
    49   104   105    1
    50   109   108    1
    51    34    35    2
    52   105   108    1
    53   105   106    1
    54    68    67    2
    55    77    67   am
    56    67    66    1
    57   106   107    2
    58    21    19    1
    59    63    61    1
    60    64    62    1
    61    19    20    1
    62    19    16    1
    63    66    69    1
    64    66    65    1
    65    48    47    1
    66    69    70    1
    67    65    59   am
    68    20    22    1
    69    47    46    1
    70     7     5    1
    71    61    62    1
    72    61    58    1
    73    11    10    2
    74    15    16    1
    75    16    17    1
    76    59    58    1
    77    59    60    2
    78    40    41    1
    79    58    57    1
    80     5     6    1
    81     5     2    1
    82    17    18    2
    83    46    45    1
    84    45    44    1
    85    70    72   ar
    86    70    71   ar
    87    10     9    1
    88    44    41    1
    89    72    74   ar
    90    41    42    1
    91     2     3    1
    92     2     1    1
    93    71    73   ar
    94     8     9    1
    95     8     3   am
    96    13    12    1
    97    52    51    2
    98    57    51   am
    99     9    12    1
   100     3     4    2
   101    51    50    1
   102    42    43    2
   103    12    14    1
   104    74    75   ar
   105    73    75   ar
   106    75    76    1
   107    50    49    1
   108    50    53    1
   109    53    54    1
   110    54    55   ar
   111    54    56   ar
