@<TRIPOS>MOLECULE
tmp/2jamA00.pdb
 116 113 0 0 0
SMALL
GASTEIGER

@<TRIPOS>ATOM
      1  N         11.4700  -18.3180   19.7800 N.3     1  ASN1       -0.1225
      2  CA        12.8430  -18.4130   19.2050 C.3     1  ASN1        0.1785
      3  C         13.3460  -17.0730   18.6510 C.2     1  ASN1        0.2597
      4  O         14.4330  -17.0340   18.0760 O.2     1  ASN1       -0.2718
      5  CB        12.9370  -19.4490   18.0650 C.3     1  ASN1        0.1169
      6  CG        11.8630  -20.5070   18.1170 C.2     1  ASN1        0.2627
      7  OD1       10.7820  -20.2750   18.6340 O.2     1  ASN1       -0.2716
      8  ND2       12.1500  -21.6770   17.5410 N.am    1  ASN1       -0.0877
      9  N         12.5720  -15.9920   18.7800 N.am    2  ILE2       -0.1980
     10  CA        12.9920  -14.7070   18.1610 C.3     2  ILE2        0.1595
     11  C         14.2370  -14.1550   18.8640 C.2     2  ILE2        0.2287
     12  O         15.1170  -13.6140   18.2020 O.2     2  ILE2       -0.2864
     13  CB        11.8220  -13.6320   18.0160 C.3     2  ILE2        0.0276
     14  CG1       12.1170  -12.6480   16.8810 C.3     2  ILE2        0.0022
     15  CG2       11.5640  -12.8600   19.3040 C.3     2  ILE2        0.0022
     16  CD1       12.1660  -13.2640   15.4930 C.3     2  ILE2        0.0001
     17  N         -2.3110  -10.4770    6.2640 N.3    43  GLU43      -0.1245
     18  CA        -1.6290  -11.6200    5.6870 C.3    43  GLU43       0.1567
     19  C         -1.5220  -11.5340    4.1510 C.2    43  GLU43       0.2260
     20  O         -0.5190  -11.9500    3.5690 O.2    43  GLU43      -0.2867
     21  CB        -2.3130  -12.9210    6.1390 C.3    43  GLU43       0.0388
     22  CG        -1.5630  -14.1660    5.7230 C.3    43  GLU43       0.1160
     23  CD        -2.1890  -15.4400    6.2500 C.2    43  GLU43       0.3649
     24  OE1       -3.2330  -15.3610    6.9210 O.co2  43  GLU43      -0.2457
     25  OE2       -1.6180  -16.5130    5.9950 O.co2  43  GLU43      -0.2457
     26  N          1.3040   -9.0020    3.4490 N.3    46  ILE46      -0.1245
     27  CA         2.5850   -9.6880    3.6120 C.3    46  ILE46       0.1561
     28  C          2.9300  -10.5580    2.3970 C.2    46  ILE46       0.2260
     29  O          4.0670  -10.5200    1.9140 O.2    46  ILE46      -0.2867
     30  CB         2.6060  -10.5360    4.8920 C.3    46  ILE46       0.0252
     31  CG1        2.7160   -9.6310    6.1270 C.3    46  ILE46       0.0019
     32  CG2        3.7830  -11.4930    4.8480 C.3    46  ILE46       0.0019
     33  CD1        2.4380  -10.3740    7.4610 C.3    46  ILE46       0.0001
     34  N          6.2910  -10.0270    0.1270 N.3    50  LYS50      -0.1245
     35  CA         7.2360  -11.0900   -0.2040 C.3    50  LYS50       0.1561
     36  C          7.6320  -11.0800   -1.6670 C.2    50  LYS50       0.2260
     37  O          8.7450  -11.4470   -1.9990 O.2    50  LYS50      -0.2867
     38  CB         6.6510  -12.4700    0.1060 C.3    50  LYS50       0.0271
     39  CG         6.6200  -12.8450    1.5880 C.3    50  LYS50       0.0035
     40  CD         5.8800  -14.1800    1.8090 C.3    50  LYS50       0.0206
     41  CE         5.7440  -14.5050    3.2870 C.3    50  LYS50       0.1093
     42  NZ         5.0190  -15.8150    3.5460 N.3    50  LYS50      -0.1314
     43  N         13.0700  -11.7410    5.6730 N.3    62  ASP62      -0.1225
     44  CA        12.5110  -12.9650    6.2530 C.3    62  ASP62       0.1805
     45  C         11.3000  -12.6030    7.0840 C.2    62  ASP62       0.2598
     46  O         11.1330  -11.4410    7.4780 O.2    62  ASP62      -0.2718
     47  CB        13.5290  -13.6560    7.1760 C.3    62  ASP62       0.1424
     48  CG        14.4160  -14.6750    6.4550 C.2    62  ASP62       0.3668
     49  OD1       13.9040  -15.5170    5.6960 O.co2  62  ASP62      -0.2456
     50  OD2       15.6430  -14.6580    6.6830 O.co2  62  ASP62      -0.2456
     51  N         10.4770  -13.6070    7.3860 N.am   63  ILE63      -0.1966
     52  CA         9.3490  -13.4370    8.2680 C.3    63  ILE63       0.1727
     53  C          9.3560  -14.5760    9.2740 C.2    63  ILE63       0.2616
     54  O          9.5410  -15.7360    8.9040 O.2    63  ILE63      -0.2715
     55  CB         8.0080  -13.4690    7.5210 C.3    63  ILE63       0.0290
     56  CG1        7.8910  -12.2670    6.6080 C.3    63  ILE63       0.0022
     57  CG2        6.8410  -13.4980    8.5040 C.3    63  ILE63       0.0023
     58  CD1        6.7690  -12.3760    5.6040 C.3    63  ILE63       0.0001
     59  N          9.2070  -14.2220   10.5430 N.am   64  TYR64      -0.1960
     60  CA         8.9520  -15.1760   11.6140 C.3    64  TYR64       0.1771
     61  C          7.5600  -14.8570   12.1600 C.2    64  TYR64       0.2619
     62  O          7.1180  -13.6960   12.1760 O.2    64  TYR64      -0.2715
     63  CB        10.0110  -15.0780   12.7310 C.3    64  TYR64       0.0574
     64  CG        11.4000  -15.4420   12.2870 C.ar   64  TYR64      -0.0198
     65  CD1       11.9160  -16.7250   12.5020 C.ar   64  TYR64      -0.0009
     66  CD2       12.1960  -14.5200   11.6110 C.ar   64  TYR64      -0.0009
     67  CE1       13.1990  -17.0660   12.0730 C.ar   64  TYR64       0.0417
     68  CE2       13.4640  -14.8460   11.1740 C.ar   64  TYR64       0.0417
     69  CZ        13.9680  -16.1260   11.3990 C.ar   64  TYR64       0.1957
     70  OH        15.2410  -16.4400   10.9700 O.3    64  TYR64      -0.2866
     71  N          6.8600  -15.9020   12.5960 N.am   65  GLU65      -0.1963
     72  CA         5.5040  -15.7570   13.0890 C.3    65  GLU65       0.1733
     73  C          5.3010  -16.5790   14.3490 C.2    65  GLU65       0.2617
     74  O          5.6970  -17.7370   14.4080 O.2    65  GLU65      -0.2715
     75  CB         4.5170  -16.2100   12.0230 C.3    65  GLU65       0.0429
     76  CG         3.1030  -15.8720   12.3370 C.3    65  GLU65       0.1163
     77  CD         2.1110  -16.4090   11.3210 C.2    65  GLU65       0.3649
     78  OE1        2.4950  -16.7680   10.1820 O.co2  65  GLU65      -0.2457
     79  OE2        0.9160  -16.4430   11.6580 O.co2  65  GLU65      -0.2457
     80  N          4.6780  -15.9440   15.3370 N.am   66  SER66      -0.1936
     81  CA         4.2260  -16.6040   16.5510 C.3    66  SER66       0.2055
     82  C          2.7100  -16.5470   16.6150 C.2    66  SER66       0.2643
     83  O          2.0300  -15.9870   15.7360 O.2    66  SER66      -0.2714
     84  CB         4.8300  -15.9270   17.7800 C.3    66  SER66       0.2130
     85  OG         4.2270  -14.6670   17.9980 O.3    66  SER66      -0.2179
     86  N          2.1660  -17.1440   17.6740 N.am   67  THR67      -0.1950
     87  CA         0.7370  -17.1160   17.8900 C.3    67  THR67       0.1897
     88  C          0.1970  -15.6860   18.0580 C.2    67  THR67       0.2313
     89  O         -0.9600  -15.4250   17.7550 O.2    67  THR67      -0.2863
     90  CB         0.3590  -18.0020   19.1100 C.3    67  THR67       0.1794
     91  OG1        1.1490  -17.6330   20.2470 O.3    67  THR67      -0.2208
     92  CG2        0.6360  -19.4350   18.7730 C.3    67  THR67       0.0378
     93  N          3.7020  -11.1240   14.0870 N.3    70  TYR70      -0.1227
     94  CA         4.5870  -11.2950   12.9430 C.3    70  TYR70       0.1736
     95  C          5.8770  -10.5030   13.2320 C.2    70  TYR70       0.2595
     96  O          5.8290   -9.4110   13.8080 O.2    70  TYR70      -0.2718
     97  CB         3.9620  -10.7300   11.6830 C.3    70  TYR70       0.0548
     98  CG         2.7120  -11.4510   11.2030 C.ar   70  TYR70      -0.0200
     99  CD1        2.7950  -12.6020   10.4370 C.ar   70  TYR70      -0.0009
    100  CD2        1.4620  -10.9380   11.4900 C.ar   70  TYR70      -0.0009
    101  CE1        1.6400  -13.2390    9.9920 C.ar   70  TYR70       0.0417
    102  CE2        0.3130  -11.5640   11.0590 C.ar   70  TYR70       0.0417
    103  CZ         0.4080  -12.7070   10.3150 C.ar   70  TYR70       0.1957
    104  OH        -0.7530  -13.3000    9.8880 O.3    70  TYR70      -0.2866
    105  N          7.0080  -11.0680   12.8400 N.am   71  TYR71      -0.1976
    106  CA         8.3050  -10.4120   12.9260 C.3    71  TYR71       0.1639
    107  C          8.8610  -10.2980   11.5140 C.2    71  TYR71       0.2290
    108  O          9.2180  -11.3020   10.9020 O.2    71  TYR71      -0.2864
    109  CB         9.2500  -11.2170   13.8020 C.3    71  TYR71       0.0560
    110  CG         8.7570  -11.3760   15.2120 C.ar   71  TYR71      -0.0198
    111  CD1        8.9850  -10.3770   16.1550 C.ar   71  TYR71      -0.0009
    112  CD2        8.0410  -12.5090   15.6020 C.ar   71  TYR71      -0.0009
    113  CE1        8.5330  -10.4970   17.4470 C.ar   71  TYR71       0.0417
    114  CE2        7.5710  -12.6320   16.9060 C.ar   71  TYR71       0.0417
    115  CZ         7.8350  -11.6260   17.8180 C.ar   71  TYR71       0.1957
    116  OH         7.3970  -11.7210   19.1140 O.3    71  TYR71      -0.2866
@<TRIPOS>BOND
     1    37    36    2
     2    36    35    1
     3    35    38    1
     4    35    34    1
     5    38    39    1
     6    39    40    1
     7    40    41    1
     8    29    28    2
     9    28    27    1
    10    41    42    1
    11    26    27    1
    12    20    19    2
    13    27    30    1
    14    19    18    1
    15    32    30    1
    16    30    31    1
    17    58    56    1
    18    43    44    1
    19    18    21    1
    20    18    17    1
    21    49    48   ar
    22    22    21    1
    23    22    23    1
    24    25    23   ar
    25    31    33    1
    26    23    24   ar
    27    44    45    1
    28    44    47    1
    29    48    50   ar
    30    48    47    1
    31    56    55    1
    32    45    51   am
    33    45    46    2
    34    51    52    1
    35    55    52    1
    36    55    57    1
    37    52    53    1
    38    54    53    2
    39    53    59   am
    40   104   103    1
    41   101   103   ar
    42   101    99   ar
    43    78    77   ar
    44   103   102   ar
    45    99    98   ar
    46    59    60    1
    47   108   107    2
    48    70    69    1
    49   102   100   ar
    50    68    69   ar
    51    68    66   ar
    52    98   100   ar
    53    98    97    1
    54    77    79   ar
    55    77    76    1
    56    69    67   ar
    57   107   106    1
    58    66    64   ar
    59    60    61    1
    60    60    63    1
    61    97    94    1
    62    75    76    1
    63    75    72    1
    64    67    65   ar
    65    61    62    2
    66    61    71   am
    67    64    65   ar
    68    64    63    1
    69    71    72    1
    70   105   106    1
    71   105    95   am
    72   106   109    1
    73    94    95    1
    74    94    93    1
    75    72    73    1
    76    95    96    2
    77   109   110    1
    78    73    74    2
    79    73    80   am
    80   110   112   ar
    81   110   111   ar
    82    80    81    1
    83    16    14    1
    84   112   114   ar
    85    83    82    2
    86   111   113   ar
    87    81    82    1
    88    81    84    1
    89    82    86   am
    90    14    13    1
    91   114   115   ar
    92   113   115   ar
    93     8     6   am
    94    86    87    1
    95    89    88    2
    96    84    85    1
    97   115   116    1
    98    87    88    1
    99    87    90    1
   100    13    10    1
   101    13    15    1
   102     5     6    1
   103     5     2    1
   104     4     3    2
   105     6     7    2
   106    10     9    1
   107    10    11    1
   108    12    11    2
   109     3     9   am
   110     3     2    1
   111    92    90    1
   112    90    91    1
   113     2     1    1
