@<TRIPOS>MOLECULE
tmp/2jamA01.pdb
 143 132 0 0 0
SMALL
GASTEIGER

@<TRIPOS>ATOM
      1  N         18.2720   -1.5700   19.9390 N.3    10  GLU10      -0.1231
      2  CA        17.4790   -0.4000   20.3150 C.3    10  GLU10       0.1699
      3  C         16.1440   -0.3350   19.6110 C.2    10  GLU10       0.2592
      4  O         15.9240   -1.0030   18.6040 O.2    10  GLU10      -0.2718
      5  CB        18.2440    0.9230   20.1070 C.3    10  GLU10       0.0402
      6  CG        18.4390    1.3710   18.7010 C.3    10  GLU10       0.1161
      7  CD        19.2610    2.6760   18.6160 C.2    10  GLU10       0.3649
      8  OE1       18.7580    3.7420   19.0370 O.co2  10  GLU10      -0.2457
      9  OE2       20.4000    2.6350   18.1090 O.co2  10  GLU10      -0.2457
     10  N         15.2530    0.4820   20.1590 N.am   11  VAL11      -0.1966
     11  CA        13.9710    0.7550   19.5320 C.3    11  VAL11       0.1727
     12  C         14.1600    1.8950   18.5250 C.2    11  VAL11       0.2616
     13  O         14.5800    2.9930   18.9060 O.2    11  VAL11      -0.2715
     14  CB        12.8990    1.1430   20.5930 C.3    11  VAL11       0.0290
     15  CG1       11.5440    1.3860   19.9100 C.3    11  VAL11       0.0023
     16  CG2       12.8010    0.0600   21.6650 C.3    11  VAL11       0.0023
     17  N         13.8560    1.6310   17.2520 N.am   12  LEU12      -0.1963
     18  CA        13.9480    2.6210   16.1740 C.3    12  LEU12       0.1728
     19  C         12.6350    3.3940   15.9540 C.2    12  LEU12       0.2616
     20  O         12.6490    4.5450   15.4980 O.2    12  LEU12      -0.2715
     21  CB        14.3720    1.9340   14.8610 C.3    12  LEU12       0.0311
     22  CG        15.7420    1.2530   14.8500 C.3    12  LEU12       0.0022
     23  CD1       15.9950    0.5930   13.5150 C.3    12  LEU12       0.0001
     24  CD2       16.8810    2.2390   15.1780 C.3    12  LEU12       0.0001
     25  N         11.5070    2.7630   16.2580 N.am   13  GLY13      -0.1955
     26  CA        10.2010    3.4360   16.2200 C.3    13  GLY13       0.1869
     27  C          9.1260    2.6100   16.9050 C.2    13  GLY13       0.2309
     28  O          9.2770    1.3960   17.0760 O.2    13  GLY13      -0.2863
     29  N          9.4860   -1.1270   15.6500 N.3    20  VAL20      -0.1245
     30  CA        10.6720   -1.5070   14.8950 C.3    20  VAL20       0.1561
     31  C         11.8960   -1.4410   15.7760 C.2    20  VAL20       0.2260
     32  O         12.1620   -0.4210   16.4130 O.2    20  VAL20      -0.2867
     33  CB        10.8750   -0.6220   13.6190 C.3    20  VAL20       0.0252
     34  CG1       12.1280   -1.0620   12.8610 C.3    20  VAL20       0.0019
     35  CG2        9.6550   -0.7060   12.6970 C.3    20  VAL20       0.0019
     36  N         16.4490   -4.1080   10.5430 N.3    33  ALA33      -0.1245
     37  CA        15.2880   -3.5110   11.1780 C.3    33  ALA33       0.1562
     38  C         14.2090   -4.6020   11.3100 C.2    33  ALA33       0.2260
     39  O         13.6790   -5.0980   10.3030 O.2    33  ALA33      -0.2867
     40  CB        14.7670   -2.3650   10.3310 C.3    33  ALA33       0.0290
     41  N         10.5490   -5.4050   12.2470 N.3    35  LYS35      -0.1245
     42  CA         9.2310   -4.8090   12.4890 C.3    35  LYS35       0.1561
     43  C          8.3240   -5.8750   13.0880 C.2    35  LYS35       0.2260
     44  O          8.0730   -6.9100   12.4660 O.2    35  LYS35      -0.2867
     45  CB         8.6360   -4.2460   11.1920 C.3    35  LYS35       0.0271
     46  CG         7.3490   -3.4620   11.3730 C.3    35  LYS35       0.0035
     47  CD         6.8220   -2.9140   10.0600 C.3    35  LYS35       0.0206
     48  CE         5.8980   -1.7420   10.3090 C.3    35  LYS35       0.1093
     49  NZ         5.2910   -1.2990    9.0420 N.3    35  LYS35      -0.1314
     50  N         12.4310   -0.5990    1.1800 N.3    58  VAL58      -0.1245
     51  CA        13.1350   -1.5410    2.0610 C.3    58  VAL58       0.1561
     52  C         12.7850   -3.0110    1.7090 C.2    58  VAL58       0.2260
     53  O         11.6190   -3.3680    1.5100 O.2    58  VAL58      -0.2867
     54  CB        12.8460   -1.2820    3.5580 C.3    58  VAL58       0.0252
     55  CG1       13.6370   -0.0500    4.0740 C.3    58  VAL58       0.0019
     56  CG2       11.3320   -1.1580    3.8240 C.3    58  VAL58       0.0019
     57  N         13.5640   -6.7200    8.1230 N.3    74  MET74      -0.1230
     58  CA        13.6480   -5.7110    7.0540 C.3    74  MET74       0.1702
     59  C         15.0640   -5.1760    6.9170 C.2    74  MET74       0.2592
     60  O         15.8860   -5.1710    7.8610 O.2    74  MET74      -0.2718
     61  CB        12.7140   -4.5040    7.2980 C.3    74  MET74       0.0401
     62  CG        11.2580   -4.7960    7.6130 C.3    74  MET74       0.0596
     63  SD        10.3830   -5.6020    6.2690 S.3    74  MET74      -0.1393
     64  CE        10.3370   -4.4360    4.9060 C.3    74  MET74       0.0692
     65  N         15.3510   -4.7530    5.7000 N.am   75  GLN75      -0.1966
     66  CA        16.5550   -3.9970    5.4100 C.3    75  GLN75       0.1733
     67  C         16.6530   -2.7580    6.3140 C.2    75  GLN75       0.2616
     68  O         15.7040   -1.9690    6.4000 O.2    75  GLN75      -0.2715
     69  CB        16.5080   -3.6050    3.9560 C.3    75  GLN75       0.0408
     70  CG        17.6740   -2.7900    3.4290 C.3    75  GLN75       0.0908
     71  CD        17.5600   -2.5140    1.9470 C.2    75  GLN75       0.2608
     72  OE1       16.4810   -2.5970    1.3710 O.2    75  GLN75      -0.2717
     73  NE2       18.6820   -2.1650    1.3240 N.am   75  GLN75      -0.0878
     74  N         17.8100   -2.6110    6.9640 N.am   76  LEU76      -0.1963
     75  CA        18.1600   -1.4190    7.7450 C.3    76  LEU76       0.1728
     76  C         18.7170   -0.3210    6.8370 C.2    76  LEU76       0.2616
     77  O         19.6120   -0.5680    6.0420 O.2    76  LEU76      -0.2715
     78  CB        19.2140   -1.7880    8.7930 C.3    76  LEU76       0.0311
     79  CG        19.6670   -0.7130    9.7830 C.3    76  LEU76       0.0022
     80  CD1       18.5560   -0.2880   10.7070 C.3    76  LEU76       0.0001
     81  CD2       20.8860   -1.2430   10.5750 C.3    76  LEU76       0.0001
     82  N         18.1910    0.8870    6.9740 N.am   77  VAL77      -0.1963
     83  CA        18.6240    2.0090    6.1740 C.3    77  VAL77       0.1727
     84  C         19.3610    2.9700    7.0960 C.2    77  VAL77       0.2616
     85  O         18.7850    3.4540    8.0660 O.2    77  VAL77      -0.2715
     86  CB        17.4040    2.7020    5.5010 C.3    77  VAL77       0.0290
     87  CG1       17.8510    3.8300    4.6120 C.3    77  VAL77       0.0023
     88  CG2       16.5960    1.6740    4.6910 C.3    77  VAL77       0.0023
     89  N         20.6230    3.2500    6.7770 N.am   78  SER78      -0.1950
     90  CA        21.5400    3.9330    7.7140 C.3    78  SER78       0.1924
     91  C         22.1380    5.2500    7.1410 C.2    78  SER78       0.2314
     92  O         23.1670    5.7530    7.6280 O.2    78  SER78      -0.2863
     93  CB        22.6490    2.9460    8.1680 C.3    78  SER78       0.2116
     94  OG        22.1310    1.9510    9.0680 O.3    78  SER78      -0.2180
     95  N         18.0650   10.9380    7.6340 N.3    81  GLU81      -0.1245
     96  CA        16.7880   11.4760    7.2530 C.3    81  GLU81       0.1567
     97  C         17.0110   12.4510    6.1190 C.2    81  GLU81       0.2260
     98  O         18.0920   13.0560    5.9810 O.2    81  GLU81      -0.2867
     99  CB        16.0780   12.1430    8.4510 C.3    81  GLU81       0.0388
    100  CG        15.4420   11.1570    9.4420 C.3    81  GLU81       0.1160
    101  CD        14.7730   11.8380   10.6470 C.2    81  GLU81       0.3649
    102  OE1       14.6380   13.0830   10.6510 O.co2  81  GLU81      -0.2457
    103  OE2       14.3960   11.1140   11.5980 O.co2  81  GLU81      -0.2457
    104  N         10.1630   12.1630    7.9840 N.3   124  GLU124     -0.1245
    105  CA        10.9220   11.1830    8.7840 C.3   124  GLU124      0.1567
    106  C         10.9180    9.7420    8.2270 C.2   124  GLU124      0.2260
    107  O         11.7700    8.9250    8.6020 O.2   124  GLU124     -0.2867
    108  CB        10.3880   11.1470   10.2260 C.3   124  GLU124      0.0388
    109  CG        10.6630   12.3960   11.0290 C.3   124  GLU124      0.1160
    110  CD         9.7420   13.5700   10.6970 C.2   124  GLU124      0.3649
    111  OE1        8.6290   13.3510   10.1370 O.co2 124  GLU124     -0.2457
    112  OE2       10.1620   14.7210   11.0050 O.co2 124  GLU124     -0.2457
    113  N         14.2700    7.8740    4.2560 N.3   127  LEU127     -0.1245
    114  CA        15.6330    7.6950    4.7490 C.3   127  LEU127      0.1561
    115  C         16.5830    7.3070    3.6200 C.2   127  LEU127      0.2260
    116  O         16.2350    6.4880    2.7470 O.2   127  LEU127     -0.2867
    117  CB        15.6820    6.6080    5.8460 C.3   127  LEU127      0.0270
    118  CG        14.8350    6.8950    7.0870 C.3   127  LEU127      0.0019
    119  CD1       14.9190    5.7620    8.1360 C.3   127  LEU127      0.0001
    120  CD2       15.2480    8.2480    7.6910 C.3   127  LEU127      0.0001
    121  N         10.2330    3.2910    4.0510 N.3   140  THR140     -0.1203
    122  CA        10.5970    2.4460    5.1610 C.3   140  THR140      0.1994
    123  C          9.3190    1.8880    5.7890 C.2   140  THR140      0.2617
    124  O          8.9440    0.7370    5.4940 O.2   140  THR140     -0.2717
    125  CB        11.4810    3.2090    6.1750 C.3   140  THR140      0.1784
    126  OG1       10.8090    4.3830    6.6500 O.3   140  THR140     -0.2211
    127  CG2       12.8100    3.6060    5.5030 C.3   140  THR140      0.0376
    128  N          8.6670    2.6960    6.6310 N.am  141  ASP141     -0.1973
    129  CA         7.4030    2.3260    7.3030 C.3   141  ASP141      0.1709
    130  C          6.2330    2.6870    6.3920 C.2   141  ASP141      0.2293
    131  O          6.0550    3.8640    6.0230 O.2   141  ASP141     -0.2864
    132  CB         7.2700    3.0760    8.6220 C.3   141  ASP141      0.1436
    133  CG         6.1350    2.5390    9.5200 C.2   141  ASP141      0.3671
    134  OD1        5.7000    1.3750    9.3360 O.co2 141  ASP141     -0.2456
    135  OD2        5.7150    3.2960   10.4120 O.co2 141  ASP141     -0.2456
    136  N          3.2560    2.6970   11.6540 N.3   147  MET147     -0.1245
    137  CA         3.3030    3.1200   13.0450 C.3   147  MET147      0.1570
    138  C          2.7780    4.5450   13.1560 C.2   147  MET147      0.2261
    139  O          3.4270    5.5130   12.7830 O.2   147  MET147     -0.2867
    140  CB         4.7130    3.0400   13.6110 C.3   147  MET147      0.0387
    141  CG         5.3010    1.6490   13.5600 C.3   147  MET147      0.0595
    142  SD         6.9320    1.6180   14.2850 S.3   147  MET147     -0.1393
    143  CE         7.8690    2.4360   12.9620 C.3   147  MET147      0.0692
@<TRIPOS>BOND
     1    50    51    1
     2    73    71   am
     3    72    71    2
     4    53    52    2
     5    52    51    1
     6    71    70    1
     7    51    54    1
     8   116   115    2
     9    70    69    1
    10    54    56    1
    11    54    55    1
    12   115   114    1
    13    69    66    1
    14   121   122    1
    15   113   114    1
    16    87    86    1
    17    88    86    1
    18   114   117    1
    19    64    63    1
    20   122   123    1
    21   122   125    1
    22    66    65    1
    23    66    67    1
    24   124   123    2
    25    86    83    1
    26   127   125    1
    27    65    59   am
    28   123   128   am
    29   117   118    1
    30    98    97    2
    31   131   130    2
    32    77    76    2
    33    97    96    1
    34    83    82    1
    35    83    84    1
    36   125   126    1
    37    63    62    1
    38    67    68    2
    39    67    74   am
    40   130   129    1
    41   128   129    1
    42    89    84   am
    43    89    90    1
    44    76    82   am
    45    76    75    1
    46    59    58    1
    47    59    60    2
    48    74    75    1
    49    58    61    1
    50    58    57    1
    51   118   120    1
    52   118   119    1
    53    84    85    2
    54    91    92    2
    55    91    90    1
    56    96    95    1
    57    96    99    1
    58    61    62    1
    59   129   132    1
    60    90    93    1
    61    75    78    1
    62   104   105    1
    63    93    94    1
    64   106   107    2
    65   106   105    1
    66    99   100    1
    67   132   133    1
    68   105   108    1
    69    78    79    1
    70    49    48    1
    71   134   133   ar
    72   100   101    1
    73   133   135   ar
    74    79    81    1
    75    79    80    1
    76    47    48    1
    77    47    46    1
    78   111   110   ar
    79   108   109    1
    80    39    38    2
    81    40    37    1
    82    36    37    1
    83   101   102   ar
    84   101   103   ar
    85   110   112   ar
    86   110   109    1
    87    37    38    1
    88    45    46    1
    89    45    42    1
    90   136   137    1
    91    41    42    1
    92    44    43    2
    93    42    43    1
    94    35    33    1
    95   139   138    2
    96    34    33    1
    97   143   142    1
    98   137   138    1
    99   137   140    1
   100    23    22    1
   101   141   140    1
   102   141   142    1
   103    33    30    1
   104    22    21    1
   105    22    24    1
   106    21    18    1
   107    30    29    1
   108    30    31    1
   109    20    19    2
   110    31    32    2
   111    19    18    1
   112    19    25   am
   113    18    17    1
   114    26    25    1
   115    26    27    1
   116    27    28    2
   117    17    12   am
   118     9     7   ar
   119    12    13    2
   120    12    11    1
   121     4     3    2
   122     7     6    1
   123     7     8   ar
   124     6     5    1
   125    11    10    1
   126    11    14    1
   127     3    10   am
   128     3     2    1
   129    15    14    1
   130     1     2    1
   131     5     2    1
   132    14    16    1
