@<TRIPOS>MOLECULE
tmp/2jamB01.pdb
 147 135 0 0 0
SMALL
GASTEIGER

@<TRIPOS>ATOM
      1  N         13.0930   12.5220   34.1980 N.3    12  GLU12      -0.1231
      2  CA        12.6710   11.6290   33.1100 C.3    12  GLU12       0.1699
      3  C         11.6060   12.2780   32.2640 C.2    12  GLU12       0.2592
      4  O         10.9350   13.2180   32.7040 O.2    12  GLU12      -0.2718
      5  CB        12.1880   10.2710   33.6330 C.3    12  GLU12       0.0402
      6  CG        10.9940   10.3130   34.5680 C.3    12  GLU12       0.1161
      7  CD        10.3480    8.9460   34.7680 C.2    12  GLU12       0.3649
      8  OE1       10.4100    8.1070   33.8430 O.co2  12  GLU12      -0.2457
      9  OE2        9.7550    8.7160   35.8480 O.co2  12  GLU12      -0.2457
     10  N         11.4580   11.7760   31.0400 N.am   13  VAL13      -0.1966
     11  CA        10.4740   12.3190   30.1080 C.3    13  VAL13       0.1727
     12  C          9.1700   11.5890   30.3860 C.2    13  VAL13       0.2616
     13  O          9.1350   10.3610   30.3180 O.2    13  VAL13      -0.2715
     14  CB        10.9340   12.1320   28.6300 C.3    13  VAL13       0.0290
     15  CG1        9.9240   12.7270   27.6800 C.3    13  VAL13       0.0023
     16  CG2       12.2920   12.7880   28.4360 C.3    13  VAL13       0.0023
     17  N          8.1120   12.3380   30.7030 N.am   14  LEU14      -0.1977
     18  CA         6.8000   11.7490   30.9920 C.3    14  LEU14       0.1596
     19  C          5.9150   11.6660   29.7590 C.2    14  LEU14       0.2287
     20  O          5.0410   10.8070   29.6710 O.2    14  LEU14      -0.2864
     21  CB         6.0700   12.5190   32.1000 C.3    14  LEU14       0.0297
     22  CG         6.7270   12.4690   33.4810 C.3    14  LEU14       0.0022
     23  CD1        5.8780   13.1950   34.5270 C.3    14  LEU14       0.0001
     24  CD2        7.0930   11.0540   33.9100 C.3    14  LEU14       0.0001
     25  N          6.6410   16.8640   28.4960 N.3    22  VAL22      -0.1245
     26  CA         6.4710   16.9350   29.9420 C.3    22  VAL22       0.1561
     27  C          7.5800   16.1320   30.5900 C.2    22  VAL22       0.2260
     28  O          7.8210   14.9900   30.2060 O.2    22  VAL22      -0.2867
     29  CB         5.0800   16.3890   30.3960 C.3    22  VAL22       0.0252
     30  CG1        4.9730   16.4000   31.9480 C.3    22  VAL22       0.0019
     31  CG2        3.9270   17.1910   29.7720 C.3    22  VAL22       0.0019
     32  N          9.4180   14.8670   34.3700 N.3    24  LEU24      -0.1245
     33  CA         9.4450   14.7230   35.8200 C.3    24  LEU24       0.1561
     34  C         10.6320   15.5700   36.2720 C.2    24  LEU24       0.2260
     35  O         11.7690   15.3620   35.8050 O.2    24  LEU24      -0.2867
     36  CB         9.6350   13.2660   36.2230 C.3    24  LEU24       0.0270
     37  CG         9.8770   12.9590   37.7090 C.3    24  LEU24       0.0019
     38  CD1        8.7430   13.4600   38.5830 C.3    24  LEU24       0.0001
     39  CD2       10.0750   11.4760   37.8960 C.3    24  LEU24       0.0001
     40  N          5.4890   17.9230   37.5660 N.3    35  ALA35      -0.1245
     41  CA         5.4150   17.6960   36.1150 C.3    35  ALA35       0.1562
     42  C          5.6010   19.0440   35.3990 C.2    35  ALA35       0.2260
     43  O          4.7470   19.9340   35.4980 O.2    35  ALA35      -0.2867
     44  CB         4.0500   17.1060   35.7330 C.3    35  ALA35       0.0290
     45  N          5.6300   21.0590   32.1040 N.3    37  LYS37      -0.1245
     46  CA         5.1840   21.0020   30.7270 C.3    37  LYS37       0.1561
     47  C          5.8440   22.1420   29.9570 C.2    37  LYS37       0.2260
     48  O          5.5970   23.3300   30.2370 O.2    37  LYS37      -0.2867
     49  CB         3.6590   21.0850   30.6090 C.3    37  LYS37       0.0271
     50  CG         3.1580   20.8250   29.1790 C.3    37  LYS37       0.0035
     51  CD         1.6520   20.9280   29.0960 C.3    37  LYS37       0.0206
     52  CE         1.0990   20.1680   27.8850 C.3    37  LYS37       0.1093
     53  NZ        -0.4030   20.3030   27.8280 N.3    37  LYS37      -0.1314
     54  N         -5.2270   18.8120   37.3440 N.3    60  VAL60      -0.1245
     55  CA        -3.8660   19.1070   37.8250 C.3    60  VAL60       0.1561
     56  C         -3.6680   20.6240   37.9890 C.2    60  VAL60       0.2260
     57  O         -4.0650   21.4110   37.1300 O.2    60  VAL60      -0.2867
     58  CB        -2.7570   18.5670   36.8610 C.3    60  VAL60       0.0252
     59  CG1       -2.5530   17.0390   37.0460 C.3    60  VAL60       0.0019
     60  CG2       -3.0520   18.9890   35.3850 C.3    60  VAL60       0.0019
     61  N          3.4620   22.0030   36.8140 N.3    76  MET76      -0.1230
     62  CA         2.1670   21.3830   37.1080 C.3    76  MET76       0.1702
     63  C          2.2880   20.4040   38.2680 C.2    76  MET76       0.2592
     64  O          3.3360   19.8130   38.4990 O.2    76  MET76      -0.2718
     65  CB         1.6590   20.5810   35.8970 C.3    76  MET76       0.0401
     66  CG         1.5530   21.3510   34.5760 C.3    76  MET76       0.0596
     67  SD         0.4840   22.7760   34.6750 S.3    76  MET76      -0.1393
     68  CE        -1.1600   22.0980   34.7260 C.3    76  MET76       0.0692
     69  N          1.1730   20.1840   38.9410 N.am   77  GLN77      -0.1966
     70  CA         1.0550   19.1220   39.9470 C.3    77  GLN77       0.1733
     71  C          1.3710   17.7390   39.3570 C.2    77  GLN77       0.2616
     72  O          0.8720   17.4000   38.2860 O.2    77  GLN77      -0.2715
     73  CB        -0.3800   19.1230   40.4350 C.3    77  GLN77       0.0408
     74  CG        -0.7650   18.0630   41.4460 C.3    77  GLN77       0.0908
     75  CD        -2.1550   18.3190   41.9720 C.2    77  GLN77       0.2608
     76  OE1       -2.9780   18.9170   41.2850 O.2    77  GLN77      -0.2717
     77  NE2       -2.4350   17.8450   43.1920 N.am   77  GLN77      -0.0878
     78  N          2.1970   16.9650   40.0590 N.am   78  LEU78      -0.1963
     79  CA         2.5170   15.6120   39.6700 C.3    78  LEU78       0.1728
     80  C          1.5510   14.6440   40.3450 C.2    78  LEU78       0.2616
     81  O          1.3230   14.7080   41.5640 O.2    78  LEU78      -0.2715
     82  CB         3.9400   15.2390   40.0730 C.3    78  LEU78       0.0311
     83  CG         4.5520   13.8600   39.7490 C.3    78  LEU78       0.0022
     84  CD1        4.8280   13.6910   38.2670 C.3    78  LEU78       0.0001
     85  CD2        5.8370   13.6370   40.5540 C.3    78  LEU78       0.0001
     86  N          1.0690   13.7130   39.5430 N.am   79  VAL79      -0.1963
     87  CA         0.1930   12.6260   39.9980 C.3    79  VAL79       0.1727
     88  C          1.0420   11.4050   40.3420 C.2    79  VAL79       0.2616
     89  O          2.1110   11.2150   39.7880 O.2    79  VAL79      -0.2715
     90  CB        -0.8290   12.3150   38.8940 C.3    79  VAL79       0.0290
     91  CG1       -1.5700   11.0440   39.1830 C.3    79  VAL79       0.0023
     92  CG2       -1.7730   13.4820   38.7660 C.3    79  VAL79       0.0023
     93  N          0.5950   10.5940   41.2960 N.am   80  SER80      -0.1950
     94  CA         1.3790    9.4160   41.7140 C.3    80  SER80       0.1924
     95  C          0.5530    8.1350   41.8560 C.2    80  SER80       0.2314
     96  O          1.0840    7.1170   42.3170 O.2    80  SER80      -0.2863
     97  CB         2.0920    9.6970   43.0550 C.3    80  SER80       0.2116
     98  OG         1.1590    9.8920   44.1260 O.3    80  SER80      -0.2180
     99  N         -2.5210    4.7110   36.3710 N.3    83  GLU83      -0.1245
    100  CA        -3.4850    4.8340   35.2840 C.3    83  GLU83       0.1567
    101  C         -4.8410    4.2450   35.6710 C.2    83  GLU83       0.2260
    102  O         -4.9300    3.3140   36.4910 O.2    83  GLU83      -0.2867
    103  CB        -2.9520    4.1870   33.9930 C.3    83  GLU83       0.0388
    104  CG        -1.9420    5.0660   33.2390 C.3    83  GLU83       0.1160
    105  CD        -1.4460    4.4710   31.9210 C.2    83  GLU83       0.3649
    106  OE1       -2.0230    3.4890   31.3990 O.co2  83  GLU83      -0.2457
    107  OE2       -0.4420    5.0070   31.4080 O.co2  83  GLU83      -0.2457
    108  N         -5.1790    6.8640   29.0090 N.3   126  GLU126     -0.1245
    109  CA        -3.8430    7.1890   29.5340 C.3   126  GLU126      0.1567
    110  C         -3.7850    8.5550   30.2040 C.2   126  GLU126      0.2260
    111  O         -2.9510    8.7730   31.0910 O.2   126  GLU126     -0.2867
    112  CB        -2.7990    7.1890   28.3940 C.3   126  GLU126      0.0388
    113  CG        -2.3980    5.8330   27.8880 C.3   126  GLU126      0.1160
    114  CD        -3.4840    5.1120   27.1030 C.2   126  GLU126      0.3649
    115  OE1       -4.3410    5.7790   26.4590 O.co2 126  GLU126     -0.2457
    116  OE2       -3.4660    3.8600   27.1450 O.co2 126  GLU126     -0.2457
    117  N         -5.4020    9.8730   35.3450 N.3   129  LEU129     -0.1245
    118  CA        -4.4540    9.2980   36.2980 C.3   129  LEU129      0.1561
    119  C         -4.9590    9.6040   37.6940 C.2   129  LEU129      0.2260
    120  O         -5.4490   10.7160   37.9400 O.2   129  LEU129     -0.2867
    121  CB        -3.0440    9.9070   36.1110 C.3   129  LEU129      0.0270
    122  CG        -2.4100    9.7130   34.7180 C.3   129  LEU129      0.0019
    123  CD1       -1.0760   10.4600   34.5870 C.3   129  LEU129      0.0001
    124  CD2       -2.2090    8.2690   34.3770 C.3   129  LEU129      0.0001
    125  N         -5.0120   15.6020   33.1340 N.3   142  THR142     -0.1203
    126  CA        -3.5990   15.9000   33.1930 C.3   142  THR142      0.1994
    127  C         -3.1820   16.7530   31.9810 C.2   142  THR142      0.2617
    128  O         -3.0410   17.9850   32.0810 O.2   142  THR142     -0.2717
    129  CB        -2.7620   14.5860   33.2750 C.3   142  THR142      0.1784
    130  OG1       -3.1140   13.7020   32.2030 O.3   142  THR142     -0.2211
    131  CG2       -3.0330   13.8630   34.5870 C.3   142  THR142      0.0376
    132  N         -2.9680   16.0900   30.8500 N.am  143  ASP143     -0.1973
    133  CA        -2.6530   16.7710   29.5870 C.3   143  ASP143      0.1709
    134  C         -3.9550   17.1400   28.8630 C.2   143  ASP143      0.2293
    135  O         -4.7780   16.2820   28.5940 O.2   143  ASP143     -0.2864
    136  CB        -1.7930   15.8510   28.7370 C.3   143  ASP143      0.1436
    137  CG        -1.2830   16.5140   27.4680 C.2   143  ASP143      0.3671
    138  OD1       -1.1310   17.7510   27.4490 O.co2 143  ASP143     -0.2456
    139  OD2       -0.9980   15.7740   26.5110 O.co2 143  ASP143     -0.2456
    140  N         -0.4100   16.9060   23.9760 N.3   149  MET149     -0.1245
    141  CA         0.6270   16.1430   23.2880 C.3   149  MET149      0.1570
    142  C          0.0250   15.1300   22.3100 C.2   149  MET149      0.2261
    143  O         -0.4460   14.0690   22.6850 O.2   149  MET149     -0.2867
    144  CB         1.5490   15.4820   24.2920 C.3   149  MET149      0.0387
    145  CG         2.2400   16.5350   25.1930 C.3   149  MET149      0.0595
    146  SD         3.4280   15.8170   26.2900 S.3   149  MET149     -0.1393
    147  CE         2.3440   14.9760   27.4660 C.3   149  MET149      0.0692
@<TRIPOS>BOND
     1   142   143    2
     2   142   141    1
     3   141   140    1
     4   141   144    1
     5   144   145    1
     6   145   146    1
     7   146   147    1
     8   115   114   ar
     9   139   137   ar
    10   114   116   ar
    11   114   113    1
    12   138   137   ar
    13   137   136    1
    14    15    14    1
    15    53    52    1
    16    52    51    1
    17   113   112    1
    18   112   109    1
    19    16    14    1
    20    25    26    1
    21   135   134    2
    22    14    11    1
    23   136   133    1
    24   134   133    1
    25   108   109    1
    26    51    50    1
    27    50    49    1
    28   109   110    1
    29   133   132    1
    30    20    19    2
    31    19    18    1
    32    31    29    1
    33    26    29    1
    34    26    27    1
    35    47    48    2
    36    47    46    1
    37    11    12    1
    38    11    10    1
    39   110   111    2
    40    28    27    2
    41    13    12    2
    42    12    17   am
    43    29    30    1
    44    49    46    1
    45    17    18    1
    46    46    45    1
    47   132   127   am
    48    18    21    1
    49    10     3   am
    50   106   105   ar
    51   107   105   ar
    52   105   104    1
    53   127   128    2
    54   127   126    1
    55    21    22    1
    56   130   129    1
    57     3     4    2
    58     3     2    1
    59     2     5    1
    60     2     1    1
    61   125   126    1
    62   126   129    1
    63   104   103    1
    64   129   131    1
    65    22    24    1
    66    22    23    1
    67     5     6    1
    68     8     7   ar
    69   103   100    1
    70    32    33    1
    71   124   122    1
    72     6     7    1
    73    66    67    1
    74    66    65    1
    75   123   122    1
    76    67    68    1
    77   122   121    1
    78     7     9   ar
    79   100   101    1
    80   100    99    1
    81   117   118    1
    82    60    58    1
    83    42    43    2
    84    42    41    1
    85   101   102    2
    86    44    41    1
    87    35    34    2
    88    33    36    1
    89    33    34    1
    90    65    62    1
    91   121   118    1
    92    41    40    1
    93    36    37    1
    94   118   119    1
    95    61    62    1
    96    58    59    1
    97    58    55    1
    98    62    63    1
    99    57    56    2
   100    54    55    1
   101   119   120    2
   102    37    39    1
   103    37    38    1
   104    55    56    1
   105    84    83    1
   106    63    64    2
   107    63    69   am
   108    72    71    2
   109    92    90    1
   110    90    91    1
   111    90    87    1
   112    69    70    1
   113    71    70    1
   114    71    78   am
   115    86    87    1
   116    86    80   am
   117    79    78    1
   118    79    82    1
   119    79    80    1
   120    83    82    1
   121    83    85    1
   122    89    88    2
   123    70    73    1
   124    87    88    1
   125    88    93   am
   126    80    81    2
   127    73    74    1
   128    76    75    2
   129    93    94    1
   130    74    75    1
   131    94    95    1
   132    94    97    1
   133    95    96    2
   134    75    77   am
   135    97    98    1
