@<TRIPOS>MOLECULE
tmp/2jaoA00.pdb
 149 144 0 0 0
SMALL
GASTEIGER

@<TRIPOS>ATOM
      1  N         -6.7790  -34.2610    3.4700 N.3     9  ASN9       -0.1240
      2  CA        -7.0140  -33.3090    2.3860 C.3     9  ASN9        0.1653
      3  C         -6.4970  -33.8340    1.0310 C.2     9  ASN9        0.2266
      4  O         -5.6330  -34.7220    1.0000 O.2     9  ASN9       -0.2867
      5  CB        -6.3610  -32.0110    2.8260 C.3     9  ASN9        0.1155
      6  CG        -6.5940  -30.8960    1.8790 C.2     9  ASN9        0.2627
      7  OD1       -5.6330  -30.2750    1.4620 O.2     9  ASN9       -0.2716
      8  ND2       -7.8930  -30.6230    1.5160 N.am    9  ASN9       -0.0877
      9  N         -5.7860  -31.6130   -2.4790 N.3    11  ASP11      -0.1239
     10  CA        -4.7500  -30.8070   -3.1120 C.3    11  ASP11       0.1674
     11  C         -3.6490  -30.4930   -2.1070 C.2    11  ASP11       0.2266
     12  O         -3.9350  -30.0830   -0.9740 O.2    11  ASP11      -0.2867
     13  CB        -5.3500  -29.5200   -3.6990 C.3    11  ASP11       0.1410
     14  CG        -6.3270  -29.8100   -4.8340 C.2    11  ASP11       0.3668
     15  OD1       -5.9270  -30.4810   -5.7930 O.co2  11  ASP11      -0.2456
     16  OD2       -7.5180  -29.4150   -4.7440 O.co2  11  ASP11      -0.2456
     17  N         -1.1140  -30.3650   -6.7940 N.3    17  PHE17      -0.1227
     18  CA        -1.6970  -29.1750   -7.4190 C.3    17  PHE17       0.1736
     19  C         -0.6160  -28.1330   -7.8230 C.2    17  PHE17       0.2595
     20  O         -0.6330  -27.6300   -8.9480 O.2    17  PHE17      -0.2718
     21  CB        -2.7130  -28.5430   -6.4360 C.3    17  PHE17       0.0547
     22  CG        -3.3320  -27.2710   -6.9240 C.ar   17  PHE17      -0.0202
     23  CD1       -2.6830  -26.0390   -6.7380 C.ar   17  PHE17      -0.0042
     24  CD2       -4.5780  -27.2900   -7.5460 C.ar   17  PHE17      -0.0042
     25  CE1       -3.2930  -24.8220   -7.2060 C.ar   17  PHE17      -0.0003
     26  CE2       -5.1780  -26.1000   -8.0080 C.ar   17  PHE17      -0.0003
     27  CZ        -4.5290  -24.8690   -7.8450 C.ar   17  PHE17      -0.0000
     28  N          0.3120  -27.8430   -6.9130 N.am   18  GLU18      -0.1979
     29  CA         1.3550  -26.8220   -7.1640 C.3    18  GLU18       0.1602
     30  C          2.2710  -27.1500   -8.3610 C.2    18  GLU18       0.2287
     31  O          2.4910  -26.2740   -9.2050 O.2    18  GLU18      -0.2864
     32  CB         2.1660  -26.5250   -5.8870 C.3    18  GLU18       0.0415
     33  CG         1.3940  -25.7810   -4.7810 C.3    18  GLU18       0.1163
     34  CD         1.0280  -24.3020   -5.0940 C.2    18  GLU18       0.3649
     35  OE1        1.6170  -23.6740   -6.0020 O.co2  18  GLU18      -0.2457
     36  OE2        0.1340  -23.7540   -4.4080 O.co2  18  GLU18      -0.2457
     37  N         -1.0140  -19.1870    0.7500 N.3    43  PHE43      -0.1227
     38  CA        -1.8380  -20.3170    0.2870 C.3    43  PHE43       0.1736
     39  C         -2.2970  -20.1820   -1.1720 C.2    43  PHE43       0.2595
     40  O         -2.1800  -21.1310   -1.9500 O.2    43  PHE43      -0.2718
     41  CB        -3.0170  -20.5320    1.2590 C.3    43  PHE43       0.0547
     42  CG        -3.9060  -21.7110    0.9150 C.ar   43  PHE43      -0.0202
     43  CD1       -3.4350  -23.0280    1.0370 C.ar   43  PHE43      -0.0042
     44  CD2       -5.2100  -21.5040    0.4750 C.ar   43  PHE43      -0.0042
     45  CE1       -4.2670  -24.1290    0.7120 C.ar   43  PHE43      -0.0003
     46  CE2       -6.0560  -22.6040    0.1370 C.ar   43  PHE43      -0.0003
     47  CZ        -5.5810  -23.9020    0.2540 C.ar   43  PHE43      -0.0000
     48  N         -2.7860  -19.0010   -1.5490 N.am   44  LEU44      -0.1966
     49  CA        -3.3070  -18.7750   -2.9050 C.3    44  LEU44       0.1728
     50  C         -2.2440  -18.3250   -3.9320 C.2    44  LEU44       0.2616
     51  O         -1.6750  -17.2250   -3.8340 O.2    44  LEU44      -0.2715
     52  CB        -4.4960  -17.7970   -2.8720 C.3    44  LEU44       0.0311
     53  CG        -5.6870  -18.1930   -1.9760 C.3    44  LEU44       0.0022
     54  CD1       -6.7170  -17.0690   -1.9240 C.3    44  LEU44       0.0001
     55  CD2       -6.3470  -19.4990   -2.4410 C.3    44  LEU44       0.0001
     56  N         -1.9950  -19.1720   -4.9260 N.am   45  ALA45      -0.1963
     57  CA        -1.0470  -18.8400   -5.9730 C.3    45  ALA45       0.1728
     58  C         -1.4640  -17.6240   -6.8180 C.2    45  ALA45       0.2616
     59  O         -0.6030  -16.8850   -7.2930 O.2    45  ALA45      -0.2715
     60  CB        -0.7910  -20.0310   -6.8720 C.3    45  ALA45       0.0334
     61  N         -2.7570  -17.4210   -7.0350 N.am   46  ASN46      -0.1972
     62  CA        -3.1440  -16.3440   -7.9530 C.3    46  ASN46       0.1688
     63  C         -2.8450  -14.9730   -7.3530 C.2    46  ASN46       0.2292
     64  O         -2.4060  -14.0570   -8.0710 O.2    46  ASN46      -0.2864
     65  CB        -4.5610  -16.5060   -8.5080 C.3    46  ASN46       0.1181
     66  CG        -5.6320  -16.1480   -7.5230 C.2    46  ASN46       0.2629
     67  OD1       -5.6440  -16.6110   -6.3740 O.2    46  ASN46      -0.2716
     68  ND2       -6.5620  -15.3080   -7.9730 N.am   46  ASN46      -0.0877
     69  N         -5.9200  -23.4930  -13.8240 N.3    64  TYR64      -0.1241
     70  CA        -6.6690  -24.4210  -12.9530 C.3    64  TYR64       0.1605
     71  C         -8.1840  -24.5010  -13.2300 C.2    64  TYR64       0.2264
     72  O         -8.8960  -25.3720  -12.6810 O.2    64  TYR64      -0.2867
     73  CB        -6.3500  -24.2350  -11.4550 C.3    64  TYR64       0.0534
     74  CG        -6.6260  -22.8730  -10.8190 C.ar   64  TYR64      -0.0201
     75  CD1       -5.5850  -22.0910  -10.3440 C.ar   64  TYR64      -0.0009
     76  CD2       -7.9340  -22.3920  -10.6540 C.ar   64  TYR64      -0.0009
     77  CE1       -5.8170  -20.8520   -9.7180 C.ar   64  TYR64       0.0417
     78  CE2       -8.1890  -21.1370  -10.0500 C.ar   64  TYR64       0.0417
     79  CZ        -7.1180  -20.3680   -9.5950 C.ar   64  TYR64       0.1957
     80  OH        -7.3390  -19.1230   -8.9840 O.3    64  TYR64      -0.2866
     81  N         -7.6080  -30.8150  -12.9810 N.3    70  PHE70      -0.1241
     82  CA        -7.7440  -31.6790  -11.7980 C.3    70  PHE70       0.1605
     83  C         -7.6430  -33.1730  -12.1510 C.2    70  PHE70       0.2264
     84  O         -7.0280  -33.9490  -11.4220 O.2    70  PHE70      -0.2867
     85  CB        -9.0350  -31.3640  -11.0030 C.3    70  PHE70       0.0534
     86  CG        -8.9530  -30.0470  -10.2270 C.ar   70  PHE70      -0.0203
     87  CD1       -8.2720  -29.9920   -9.0160 C.ar   70  PHE70      -0.0042
     88  CD2       -9.5220  -28.8620  -10.7370 C.ar   70  PHE70      -0.0042
     89  CE1       -8.1590  -28.7900   -8.2800 C.ar   70  PHE70      -0.0003
     90  CE2       -9.4210  -27.6350  -10.0060 C.ar   70  PHE70      -0.0003
     91  CZ        -8.7270  -27.6130   -8.7640 C.ar   70  PHE70      -0.0000
     92  N        -12.1180  -32.3910    0.9150 N.3    98  THR98      -0.1203
     93  CA       -11.5820  -31.4650   -0.0990 C.3    98  THR98       0.1994
     94  C        -12.5480  -30.2860   -0.3800 C.2    98  THR98       0.2619
     95  O        -13.7650  -30.4550   -0.3010 O.2    98  THR98      -0.2717
     96  CB       -11.1750  -32.2640   -1.3970 C.3    98  THR98       0.1784
     97  OG1      -10.5860  -31.3930   -2.3700 O.3    98  THR98      -0.2211
     98  CG2      -12.3570  -33.0060   -2.0350 C.3    98  THR98       0.0376
     99  N        -11.9920  -29.0990   -0.6590 N.am   99  THR99      -0.1939
    100  CA       -12.7950  -27.9040   -0.9550 C.3    99  THR99       0.2013
    101  C        -12.7860  -27.6370   -2.4630 C.2    99  THR99       0.2484
    102  O        -11.7350  -27.4440   -3.0340 O.2    99  THR99      -0.2729
    103  CB       -12.2660  -26.6610   -0.1870 C.3    99  THR99       0.1807
    104  OG1      -12.4700  -26.8580    1.2240 O.3    99  THR99      -0.2208
    105  CG2      -13.0140  -25.3620   -0.6400 C.3    99  THR99       0.0379
    106  N        -13.9610  -27.6380   -3.1250 N.am  100  PRO100     -0.2715
    107  CA       -13.9050  -27.4030   -4.5510 C.3   100  PRO100      0.1536
    108  C        -13.8390  -25.8740   -4.8680 C.2   100  PRO100      0.2598
    109  O        -14.1730  -25.0830   -4.0130 O.2   100  PRO100     -0.2715
    110  CB       -15.2420  -27.9700   -5.0280 C.3   100  PRO100      0.0310
    111  CG       -16.1720  -27.7120   -3.8940 C.3   100  PRO100      0.0237
    112  CD       -15.3440  -27.8200   -2.6370 C.3   100  PRO100      0.0939
    113  N        -13.4010  -25.5080   -6.0720 N.am  101  LEU101     -0.1978
    114  CA       -13.4350  -24.1330   -6.5510 C.3   101  LEU101      0.1596
    115  C        -14.8860  -23.6570   -6.5850 C.2   101  LEU101      0.2287
    116  O        -15.7960  -24.4610   -6.8300 O.2   101  LEU101     -0.2864
    117  CB       -12.8990  -24.0550   -7.9860 C.3   101  LEU101      0.0297
    118  CG       -11.4100  -24.2740   -8.3170 C.3   101  LEU101      0.0022
    119  CD1      -11.1860  -24.1880   -9.8150 C.3   101  LEU101      0.0001
    120  CD2      -10.5520  -23.2490   -7.6080 C.3   101  LEU101      0.0001
    121  N        -12.4830  -34.3370   -9.6500 N.3   111  LYS111     -0.1245
    122  CA       -11.9970  -34.7980   -8.3520 C.3   111  LYS111      0.1561
    123  C        -12.4620  -36.2110   -7.9900 C.2   111  LYS111      0.2260
    124  O        -11.6650  -37.0090   -7.4720 O.2   111  LYS111     -0.2867
    125  CB       -12.3650  -33.8100   -7.2510 C.3   111  LYS111      0.0271
    126  CG       -11.4170  -32.5670   -7.1400 C.3   111  LYS111      0.0035
    127  CD       -11.9580  -31.5700   -6.0770 C.3   111  LYS111      0.0206
    128  CE       -10.9500  -30.4440   -5.6870 C.3   111  LYS111      0.1093
    129  NZ        -9.6720  -30.9650   -5.1100 N.3   111  LYS111     -0.1314
    130  N        -16.9250  -26.5130    1.7470 N.3   131  ARG131     -0.1245
    131  CA       -16.1990  -25.2380    1.8950 C.3   131  ARG131      0.1563
    132  C        -15.9700  -24.8700    3.3470 C.2   131  ARG131      0.2260
    133  O        -15.4110  -23.7970    3.6280 O.2   131  ARG131     -0.2867
    134  CB       -16.9120  -24.0630    1.1990 C.3   131  ARG131      0.0307
    135  CG       -17.2790  -24.2960   -0.2470 C.3   131  ARG131      0.0489
    136  CD       -16.3130  -23.7260   -1.2740 C.3   131  ARG131      0.2205
    137  NE       -15.9220  -22.3270   -1.0260 N.pl3 131  ARG131     -0.0865
    138  CZ       -14.8740  -21.7720   -1.6270 C.cat 131  ARG131      0.5346
    139  NH1      -14.5210  -20.5200   -1.3840 N.pl3 131  ARG131      0.1354
    140  NH2      -14.1690  -22.5000   -2.4730 N.pl3 131  ARG131      0.1354
    141  N        -14.5410  -27.0200    6.6160 N.3   133  LYS133     -0.1245
    142  CA       -14.0210  -28.2560    7.2220 C.3   133  LYS133      0.1561
    143  C        -14.2920  -28.3330    8.7050 C.2   133  LYS133      0.2260
    144  O        -14.2470  -29.4350    9.2690 O.2   133  LYS133     -0.2867
    145  CB       -12.4830  -28.4090    6.9430 C.3   133  LYS133      0.0271
    146  CG       -12.1720  -28.5220    5.4170 C.3   133  LYS133      0.0035
    147  CD       -10.6630  -28.3800    5.1190 C.3   133  LYS133      0.0206
    148  CE       -10.3750  -28.3980    3.5900 C.3   133  LYS133      0.1093
    149  NZ        -9.1430  -27.5390    3.4190 N.3   133  LYS133     -0.1314
@<TRIPOS>BOND
     1    69    70    1
     2    71    70    1
     3    71    72    2
     4    81    82    1
     5    70    73    1
     6    83    82    1
     7    83    84    2
     8    82    85    1
     9    73    74    1
    10    85    86    1
    11    74    76   ar
    12    74    75   ar
    13    88    86   ar
    14    88    90   ar
    15    76    78   ar
    16    75    77   ar
    17    86    87   ar
    18    78    79   ar
    19    90    91   ar
    20   119   118    1
    21    77    79   ar
    22   121   122    1
    23    79    80    1
    24    31    30    2
    25    87    89   ar
    26    20    19    2
    27    91    89   ar
    28    65    62    1
    29    65    66    1
    30    30    29    1
    31   122   123    1
    32   122   125    1
    33   118   117    1
    34   118   120    1
    35    64    63    2
    36    26    27   ar
    37    26    24   ar
    38   123   124    2
    39   117   114    1
    40    68    66   am
    41    62    63    1
    42    62    61    1
    43    27    25   ar
    44    19    18    1
    45    19    28   am
    46    24    22   ar
    47    66    67    2
    48    18    17    1
    49    18    21    1
    50    59    58    2
    51   125   126    1
    52    25    23   ar
    53    29    28    1
    54    29    32    1
    55   126   127    1
    56    61    58   am
    57    22    23   ar
    58    22    21    1
    59    60    57    1
    60   116   115    2
    61    58    57    1
    62   115   114    1
    63   114   113    1
    64   127   128    1
    65   113   108   am
    66    35    34   ar
    67    57    56    1
    68    32    33    1
    69    15    14   ar
    70   128   129    1
    71    34    33    1
    72    34    36   ar
    73   110   107    1
    74   110   111    1
    75    56    50   am
    76   108   107    1
    77   108   109    2
    78    14    16   ar
    79    14    13    1
    80   107   106    1
    81    50    51    2
    82    50    49    1
    83   111   112    1
    84    13    10    1
    85   106   112    1
    86   106   101   am
    87    10     9    1
    88    10    11    1
    89   102   101    2
    90    49    52    1
    91    49    48    1
    92    52    53    1
    93   140   138    1
    94   101   100    1
    95    55    53    1
    96    97    96    1
    97    11    12    2
    98    98    96    1
    99    53    54    1
   100    40    39    2
   101   138   139    1
   102   138   137    2
   103    48    39   am
   104    96    93    1
   105   136   137    1
   106   136   135    1
   107    39    38    1
   108   100    99    1
   109   100   103    1
   110    99    94   am
   111   105   103    1
   112    94    95    2
   113    94    93    1
   114   135   134    1
   115   103   104    1
   116    93    92    1
   117    46    47   ar
   118    46    44   ar
   119    47    45   ar
   120    38    37    1
   121    38    41    1
   122    44    42   ar
   123    45    43   ar
   124    42    43   ar
   125    42    41    1
   126     4     3    2
   127     3     2    1
   128   134   131    1
   129     7     6    2
   130     8     6   am
   131   130   131    1
   132     6     5    1
   133   131   132    1
   134     2     5    1
   135     2     1    1
   136   132   133    2
   137   149   148    1
   138   148   147    1
   139   147   146    1
   140   146   145    1
   141   141   142    1
   142   145   142    1
   143   142   143    1
   144   143   144    2
