@<TRIPOS>MOLECULE
tmp/2japC01.pdb
 159 150 0 0 0
SMALL
GASTEIGER

@<TRIPOS>ATOM
      1  N         57.8200  -15.7260   13.1820 N.3    94  MET94      -0.1245
      2  CA        57.5840  -14.6090   14.0950 C.3    94  MET94       0.1570
      3  C         58.0160  -13.2910   13.4570 C.2    94  MET94       0.2261
      4  O         59.2070  -12.9770   13.3770 O.2    94  MET94      -0.2867
      5  CB        58.3000  -14.8280   15.4380 C.3    94  MET94       0.0387
      6  CG        58.1240  -13.6830   16.4170 C.3    94  MET94       0.0595
      7  SD        58.8630  -13.9220   18.0380 S.3    94  MET94      -0.1393
      8  CE        60.5850  -13.5850   17.6840 C.3    94  MET94       0.0692
      9  N         57.8270   -9.5330   13.8940 N.3    96  LEU96      -0.1245
     10  CA        57.5640   -8.5070   14.8870 C.3    96  LEU96       0.1561
     11  C         57.5750   -7.1110   14.2890 C.2    96  LEU96       0.2260
     12  O         58.2280   -6.8570   13.2720 O.2    96  LEU96      -0.2867
     13  CB        58.5820   -8.6050   16.0270 C.3    96  LEU96       0.0270
     14  CG        58.6930   -9.9530   16.7490 C.3    96  LEU96       0.0019
     15  CD1       59.6910   -9.8460   17.8890 C.3    96  LEU96       0.0001
     16  CD2       57.3350  -10.3850   17.2760 C.3    96  LEU96       0.0001
     17  N         53.6770  -20.6220   22.4450 N.3   141  SER141     -0.1202
     18  CA        54.6910  -19.6890   22.8770 C.3   141  SER141      0.2020
     19  C         54.2290  -18.9900   24.1450 C.2   141  SER141      0.2619
     20  O         53.0370  -19.0040   24.4790 O.2   141  SER141     -0.2717
     21  CB        54.9320  -18.6460   21.7630 C.3   141  SER141      0.2103
     22  OG        55.8260  -17.6400   22.1940 O.3   141  SER141     -0.2182
     23  N         55.1800  -18.3820   24.8400 N.am  142  ILE142     -0.1965
     24  CA        54.8910  -17.3590   25.8450 C.3   142  ILE142      0.1727
     25  C         53.9350  -16.3180   25.2430 C.2   142  ILE142      0.2616
     26  O         53.1180  -15.7310   25.9500 O.2   142  ILE142     -0.2715
     27  CB        56.2080  -16.6900   26.3630 C.3   142  ILE142      0.0290
     28  CG1       55.9160  -15.7020   27.4980 C.3   142  ILE142      0.0022
     29  CG2       56.9920  -16.0260   25.2120 C.3   142  ILE142      0.0023
     30  CD1       57.1370  -15.1960   28.2470 C.3   142  ILE142      0.0001
     31  N         54.0420  -16.1270   23.9270 N.am  143  ALA143     -0.1977
     32  CA        53.1860  -15.2200   23.1560 C.3   143  ALA143      0.1597
     33  C         51.7350  -15.6670   23.0870 C.2   143  ALA143      0.2287
     34  O         50.8790  -14.9070   22.6320 O.2   143  ALA143     -0.2864
     35  CB        53.7200  -15.0510   21.7620 C.3   143  ALA143      0.0319
     36  N         51.1060  -14.3040   27.2810 N.3   146  VAL146     -0.1245
     37  CA        51.3540  -12.9250   27.6980 C.3   146  VAL146      0.1561
     38  C         51.5360  -12.0360   26.4700 C.2   146  VAL146      0.2260
     39  O         52.0950  -12.4670   25.4650 O.2   146  VAL146     -0.2867
     40  CB        52.5750  -12.7800   28.6680 C.3   146  VAL146      0.0252
     41  CG1       52.2710  -13.3810   30.0550 C.3   146  VAL146      0.0019
     42  CG2       53.8100  -13.4120   28.1080 C.3   146  VAL146      0.0019
     43  N         53.1650   -8.5860   24.8440 N.3   148  VAL148     -0.1231
     44  CA        54.1070   -7.4610   24.8930 C.3   148  VAL148      0.1692
     45  C         53.9960   -6.6430   23.5930 C.2   148  VAL148      0.2591
     46  O         53.4850   -7.1510   22.5870 O.2   148  VAL148     -0.2718
     47  CB        55.6050   -7.9170   25.0970 C.3   148  VAL148      0.0266
     48  CG1       55.7930   -8.6340   26.4430 C.3   148  VAL148      0.0020
     49  CG2       56.0890   -8.7910   23.9320 C.3   148  VAL148      0.0020
     50  N         54.4780   -5.3930   23.6280 N.am  149  ARG149     -0.1980
     51  CA        54.4420   -4.4770   22.4720 C.3   149  ARG149      0.1597
     52  C         55.1450   -5.0510   21.2520 C.2   149  ARG149      0.2287
     53  O         56.1000   -5.8260   21.3820 O.2   149  ARG149     -0.2864
     54  CB        55.0730   -3.1100   22.8200 C.3   149  ARG149      0.0334
     55  CG        54.1690   -2.2000   23.6480 C.3   149  ARG149      0.0492
     56  CD        54.8180   -0.8680   24.0000 C.3   149  ARG149      0.2205
     57  NE        54.6790    0.1160   22.9260 N.pl3 149  ARG149     -0.0865
     58  CZ        54.7790    1.4340   23.0890 C.cat 149  ARG149      0.5346
     59  NH1       55.0190    1.9460   24.2910 N.pl3 149  ARG149      0.1354
     60  NH2       54.6260    2.2450   22.0460 N.pl3 149  ARG149      0.1354
     61  N         54.2720   -7.2410   19.0100 N.3   151  ALA151     -0.1245
     62  CA        54.0610   -8.6300   18.6540 C.3   151  ALA151      0.1562
     63  C         52.5620   -8.9470   18.5590 C.2   151  ALA151      0.2260
     64  O         52.1530  -10.0840   18.7620 O.2   151  ALA151     -0.2867
     65  CB        54.7750   -9.5490   19.6630 C.3   151  ALA151      0.0290
     66  N         51.4400  -11.7720   15.9470 N.3   154  TYR154     -0.1227
     67  CA        52.0750  -13.0070   16.3520 C.3   154  TYR154      0.1736
     68  C         51.3970  -13.5690   17.5990 C.2   154  TYR154      0.2595
     69  O         51.0470  -14.7390   17.6460 O.2   154  TYR154     -0.2718
     70  CB        53.5690  -12.7810   16.5870 C.3   154  TYR154      0.0548
     71  CG        54.3250  -14.0200   17.0120 C.ar  154  TYR154     -0.0200
     72  CD1       54.8770  -14.1160   18.2880 C.ar  154  TYR154     -0.0009
     73  CD2       54.4860  -15.0970   16.1370 C.ar  154  TYR154     -0.0009
     74  CE1       55.5730  -15.2570   18.6790 C.ar  154  TYR154      0.0417
     75  CE2       55.1760  -16.2370   16.5200 C.ar  154  TYR154      0.0417
     76  CZ        55.7160  -16.3110   17.7870 C.ar  154  TYR154      0.1957
     77  OH        56.4130  -17.4360   18.1650 O.3   154  TYR154     -0.2866
     78  N         51.2180  -12.7110   18.6010 N.am  155  GLN155     -0.1979
     79  CA        50.4910  -13.0620   19.8070 C.3   155  GLN155      0.1601
     80  C         49.0350  -13.4670   19.4970 C.2   155  GLN155      0.2287
     81  O         48.5200  -14.4050   20.0870 O.2   155  GLN155     -0.2864
     82  CB        50.6170  -11.9250   20.8370 C.3   155  GLN155      0.0394
     83  CG        52.0690  -11.8160   21.3340 C.3   155  GLN155      0.0908
     84  CD        52.4050  -10.5420   22.0840 C.2   155  GLN155      0.2608
     85  OE1       53.3340  -10.5370   22.8730 O.2   155  GLN155     -0.2717
     86  NE2       51.6760   -9.4570   21.8230 N.am  155  GLN155     -0.0878
     87  N         57.1780  -22.1940   24.9260 N.3   184  PRO184     -0.2102
     88  CA        58.5130  -21.6850   25.2400 C.3   184  PRO184      0.1504
     89  C         58.5550  -20.1700   25.3200 C.2   184  PRO184      0.2576
     90  O         57.8520  -19.4910   24.5740 O.2   184  PRO184     -0.2718
     91  CB        59.3550  -22.1330   24.0340 C.3   184  PRO184      0.0282
     92  CG        58.4870  -23.1710   23.3030 C.3   184  PRO184      0.0208
     93  CD        57.1050  -22.6920   23.5420 C.3   184  PRO184      0.0893
     94  N         59.3780  -19.6630   26.2290 N.am  185  GLY185     -0.1943
     95  CA        59.8470  -18.2900   26.1570 C.3   185  GLY185      0.2014
     96  C         61.0030  -18.2400   25.1750 C.2   185  GLY185      0.2640
     97  O         61.1870  -19.1700   24.3700 O.2   185  GLY185     -0.2714
     98  N         61.7890  -17.1680   25.2420 N.am  186  THR186     -0.1936
     99  CA        62.9130  -16.9610   24.3120 C.3   186  THR186      0.2028
    100  C         63.8510  -18.1680   24.1970 C.2   186  THR186      0.2642
    101  O         64.4790  -18.5870   25.1720 O.2   186  THR186     -0.2714
    102  CB        63.7330  -15.7150   24.6660 C.3   186  THR186      0.1808
    103  OG1       62.8420  -14.6570   25.0290 O.3   186  THR186     -0.2208
    104  CG2       64.5750  -15.2880   23.4770 C.3   186  THR186      0.0379
    105  N         63.9180  -18.6980   22.9780 N.am  187  THR187     -0.1950
    106  CA        64.6820  -19.8900   22.6380 C.3   187  THR187      0.1897
    107  C         65.6100  -19.5460   21.4680 C.2   187  THR187      0.2313
    108  O         65.2030  -18.8910   20.5010 O.2   187  THR187     -0.2863
    109  CB        63.7350  -21.1010   22.2960 C.3   187  THR187      0.1794
    110  OG1       62.8300  -21.3360   23.3810 O.3   187  THR187     -0.2208
    111  CG2       64.5100  -22.3930   22.0400 C.3   187  THR187      0.0378
    112  N         64.4590  -18.3470   14.2910 N.3   191  LEU191     -0.1245
    113  CA        63.1630  -17.6390   14.2300 C.3   191  LEU191      0.1561
    114  C         63.2930  -16.1190   14.0120 C.2   191  LEU191      0.2260
    115  O         62.6880  -15.5610   13.0890 O.2   191  LEU191     -0.2867
    116  CB        62.3100  -17.9150   15.4830 C.3   191  LEU191      0.0270
    117  CG        60.8210  -17.5450   15.4560 C.3   191  LEU191      0.0019
    118  CD1       60.0220  -18.5250   14.5950 C.3   191  LEU191      0.0001
    119  CD2       60.2210  -17.4930   16.8730 C.3   191  LEU191      0.0001
    120  N         64.3640   -6.1880   19.5690 N.3   204  TYR204     -0.1241
    121  CA        64.1770   -7.5260   20.1140 C.3   204  TYR204      0.1605
    122  C         65.5270   -8.1820   20.4390 C.2   204  TYR204      0.2264
    123  O         65.6990   -8.7680   21.5160 O.2   204  TYR204     -0.2867
    124  CB        63.3820   -8.3800   19.1240 C.3   204  TYR204      0.0534
    125  CG        63.1700   -9.8140   19.5450 C.ar  204  TYR204     -0.0201
    126  CD1       63.7130  -10.8660   18.7990 C.ar  204  TYR204     -0.0009
    127  CD2       62.4180  -10.1250   20.6760 C.ar  204  TYR204     -0.0009
    128  CE1       63.5120  -12.1830   19.1690 C.ar  204  TYR204      0.0417
    129  CE2       62.2110  -11.4440   21.0560 C.ar  204  TYR204      0.0417
    130  CZ        62.7610  -12.4680   20.3030 C.ar  204  TYR204      0.1957
    131  OH        62.5480  -13.7750   20.6850 O.3   204  TYR204     -0.2866
    132  N         66.9330   -6.7700   23.5650 N.3   207  ARG207     -0.1231
    133  CA        66.1800   -7.1760   24.7440 C.3   207  ARG207      0.1694
    134  C         66.5620   -8.5860   25.2130 C.2   207  ARG207      0.2591
    135  O         66.6660   -8.8270   26.4190 O.2   207  ARG207     -0.2718
    136  CB        64.6800   -7.0450   24.5140 C.3   207  ARG207      0.0321
    137  CG        63.8270   -7.6160   25.6370 C.3   207  ARG207      0.0489
    138  CD        62.5100   -8.0850   25.0750 C.3   207  ARG207      0.2205
    139  NE        61.8700   -9.1180   25.8930 N.pl3 207  ARG207     -0.0865
    140  CZ        60.7220   -9.7100   25.5710 C.cat 207  ARG207      0.5346
    141  NH1       60.0930   -9.3750   24.4450 N.pl3 207  ARG207      0.1354
    142  NH2       60.2010  -10.6360   26.3700 N.pl3 207  ARG207      0.1354
    143  N         66.8130   -9.4920   24.2670 N.am  208  ILE208     -0.1980
    144  CA        67.1250  -10.8830   24.5900 C.3   208  ILE208      0.1595
    145  C         68.6270  -11.1830   24.7020 C.2   208  ILE208      0.2287
    146  O         69.0190  -12.3240   24.9680 O.2   208  ILE208     -0.2864
    147  CB        66.4480  -11.8660   23.5900 C.3   208  ILE208      0.0276
    148  CG1       67.0130  -11.6990   22.1730 C.3   208  ILE208      0.0022
    149  CG2       64.9320  -11.6740   23.6100 C.3   208  ILE208      0.0022
    150  CD1       66.5370  -12.7370   21.1680 C.3   208  ILE208      0.0001
    151  N         64.7660  -14.1200   32.7390 N.3   245  GLN245     -0.1245
    152  CA        63.8390  -13.1620   32.1470 C.3   245  GLN245      0.1566
    153  C         62.5690  -12.9030   32.9770 C.2   245  GLN245      0.2260
    154  O         61.7170  -13.7850   33.1300 O.2   245  GLN245     -0.2867
    155  CB        63.4590  -13.6250   30.7420 C.3   245  GLN245      0.0367
    156  CG        62.6170  -12.6550   29.9530 C.3   245  GLN245      0.0905
    157  CD        62.0450  -13.3180   28.7250 C.2   245  GLN245      0.2608
    158  OE1       61.0990  -14.1000   28.8220 O.2   245  GLN245     -0.2717
    159  NE2       62.6300  -13.0360   27.5630 N.am  245  GLN245     -0.0878
@<TRIPOS>BOND
     1   115   114    2
     2     1     2    1
     3    12    11    2
     4     4     3    2
     5     3     2    1
     6     9    10    1
     7   114   113    1
     8     2     5    1
     9   113   112    1
    10   113   116    1
    11    11    10    1
    12   118   117    1
    13    10    13    1
    14     5     6    1
    15   117   116    1
    16   117   119    1
    17    66    67    1
    18    13    14    1
    19    73    75   ar
    20    73    71   ar
    21    67    70    1
    22    67    68    1
    23     6     7    1
    24    75    76   ar
    25    70    71    1
    26    14    16    1
    27    14    15    1
    28    71    72   ar
    29    68    69    2
    30    68    78   am
    31     8     7    1
    32    76    77    1
    33    76    74   ar
    34    72    74   ar
    35    63    62    1
    36    63    64    2
    37    78    79    1
    38    62    61    1
    39    62    65    1
    40   126   128   ar
    41   126   125   ar
    42   124   125    1
    43   124   121    1
    44   128   130   ar
    45    80    79    1
    46    80    81    2
    47   125   127   ar
    48   120   121    1
    49    79    82    1
    50   121   122    1
    51   130   131    1
    52   130   129   ar
    53   122   123    2
    54   108   107    2
    55   127   129   ar
    56    82    83    1
    57   150   148    1
    58    52    53    2
    59    52    51    1
    60    83    84    1
    61   107   106    1
    62    35    32    1
    63    21    22    1
    64    21    18    1
    65    86    84   am
    66   111   109    1
    67    60    58    1
    68    84    85    2
    69   148   147    1
    70   109   106    1
    71   109   110    1
    72    17    18    1
    73    51    54    1
    74    51    50    1
    75    46    45    2
    76    34    33    2
    77   106   105    1
    78    54    55    1
    79    18    19    1
    80    57    58    2
    81    57    56    1
    82   105   100   am
    83    33    32    1
    84    58    59    1
    85    32    31    1
    86    92    93    1
    87    92    91    1
    88   104   102    1
    89    93    87    1
    90   132   133    1
    91   147   149    1
    92   147   144    1
    93    45    50   am
    94    45    44    1
    95    55    56    1
    96    31    25   am
    97    49    47    1
    98    91    88    1
    99    19    20    2
   100    19    23   am
   101   100    99    1
   102   100   101    2
   103   143   144    1
   104   143   134   am
   105    99   102    1
   106    99    98    1
   107    97    96    2
   108   141   140    1
   109   136   133    1
   110   136   137    1
   111    90    89    2
   112   144   145    1
   113   102   103    1
   114   145   146    2
   115   133   134    1
   116    23    24    1
   117    43    44    1
   118    44    47    1
   119    87    88    1
   120   138   137    1
   121   138   139    1
   122    47    48    1
   123    96    98   am
   124    96    95    1
   125    29    27    1
   126   134   135    2
   127    88    89    1
   128    25    24    1
   129    25    26    2
   130    89    94   am
   131    39    38    2
   132   140   139    2
   133   140   142    1
   134    24    27    1
   135    95    94    1
   136    27    28    1
   137    38    37    1
   138    36    37    1
   139    28    30    1
   140   159   157   am
   141    37    40    1
   142    42    40    1
   143    40    41    1
   144   157   158    2
   145   157   156    1
   146   156   155    1
   147   155   152    1
   148   152   151    1
   149   152   153    1
   150   153   154    2
