@<TRIPOS>MOLECULE
tmp/2jaqA00.pdb
 227 216 0 0 0
SMALL
GASTEIGER

@<TRIPOS>ATOM
      1  N        -24.5220  -12.7050  -18.5630 N.3     9  VAL9       -0.1231
      2  CA       -23.8370  -11.7700  -19.4630 C.3     9  VAL9        0.1692
      3  C        -23.4610  -12.4610  -20.7850 C.2     9  VAL9        0.2593
      4  O        -22.7730  -13.4890  -20.7890 O.2     9  VAL9       -0.2718
      5  CB       -22.5880  -11.1540  -18.7810 C.3     9  VAL9        0.0266
      6  CG1      -21.8790  -10.1650  -19.7050 C.3     9  VAL9        0.0020
      7  CG2      -22.9840  -10.4680  -17.4720 C.3     9  VAL9        0.0020
      8  N        -23.9360  -11.9070  -21.8990 N.am   10  GLY10      -0.1942
      9  CA       -23.6380  -12.4540  -23.2170 C.3    10  GLY10       0.2014
     10  C        -24.6540  -13.4820  -23.6830 C.2    10  GLY10       0.2639
     11  O        -24.4590  -14.1070  -24.7260 O.2    10  GLY10      -0.2714
     12  N        -25.7340  -13.6550  -22.9070 N.am   11  ALA11      -0.1963
     13  CA       -26.8630  -14.5260  -23.2660 C.3    11  ALA11       0.1728
     14  C        -27.6570  -14.0060  -24.4620 C.2    11  ALA11       0.2617
     15  O        -28.3170  -14.7840  -25.1660 O.2    11  ALA11      -0.2715
     16  CB       -27.7930  -14.7150  -22.0750 C.3    11  ALA11       0.0334
     17  N        -27.6020  -12.6930  -24.6810 N.am   12  GLY12      -0.1940
     18  CA       -28.3310  -12.0630  -25.7900 C.3    12  GLY12       0.2014
     19  C        -29.6620  -11.4430  -25.3950 C.2    12  GLY12       0.2639
     20  O        -30.5620  -11.3070  -26.2320 O.2    12  GLY12      -0.2714
     21  N        -29.7800  -11.0480  -24.1270 N.am   13  LYS13      -0.1963
     22  CA       -31.0150  -10.4560  -23.6050 C.3    13  LYS13       0.1728
     23  C        -31.4720   -9.2010  -24.3490 C.2    13  LYS13       0.2617
     24  O        -32.6650   -9.0540  -24.6580 O.2    13  LYS13      -0.2715
     25  CB       -30.8940  -10.1550  -22.1120 C.3    13  LYS13       0.0311
     26  CG       -30.7580  -11.3940  -21.2110 C.3    13  LYS13       0.0038
     27  CD       -30.7460  -11.0300  -19.7190 C.3    13  LYS13       0.0206
     28  CE       -29.6170  -10.0770  -19.3580 C.3    13  LYS13       0.1093
     29  NZ       -28.2830  -10.6290  -19.6840 N.3    13  LYS13      -0.1314
     30  N        -30.5430   -8.2960  -24.6430 N.am   14  SER14      -0.1936
     31  CA       -30.9580   -7.0270  -25.2380 C.3    14  SER14       0.2055
     32  C        -31.3300   -7.1980  -26.7150 C.2    14  SER14       0.2643
     33  O        -32.2690   -6.5580  -27.2110 O.2    14  SER14      -0.2714
     34  CB       -29.9450   -5.9030  -24.9740 C.3    14  SER14       0.2130
     35  OG       -28.8920   -5.9190  -25.9130 O.3    14  SER14      -0.2179
     36  N        -30.6330   -8.1040  -27.3910 N.am   15  THR15      -0.1950
     37  CA       -30.9740   -8.4950  -28.7630 C.3    15  THR15       0.1897
     38  C        -32.3720   -9.1260  -28.8370 C.2    15  THR15       0.2313
     39  O        -33.2100   -8.7080  -29.6370 O.2    15  THR15      -0.2863
     40  CB       -29.9030   -9.4580  -29.3340 C.3    15  THR15       0.1794
     41  OG1      -28.6200   -8.8240  -29.2570 O.3    15  THR15      -0.2208
     42  CG2      -30.2090   -9.8600  -30.8000 C.3    15  THR15       0.0378
     43  N        -34.9250   -1.2810  -19.9060 N.3    30  LYS30      -0.1231
     44  CA       -33.4840   -1.4490  -19.9300 C.3    30  LYS30       0.1693
     45  C        -32.8460   -0.6520  -18.8060 C.2    30  LYS30       0.2591
     46  O        -33.3880    0.3630  -18.3610 O.2    30  LYS30      -0.2718
     47  CB       -32.9060   -0.9600  -21.2620 C.3    30  LYS30       0.0285
     48  CG       -32.6540   -2.0540  -22.2940 C.3    30  LYS30       0.0035
     49  CD       -31.3830   -1.7920  -23.1120 C.3    30  LYS30       0.0206
     50  CE       -30.0930   -2.0710  -22.3120 C.3    30  LYS30       0.1093
     51  NZ       -29.7630   -3.5300  -22.1680 N.3    30  LYS30      -0.1314
     52  N        -31.6990   -1.1320  -18.3430 N.am   31  GLU31      -0.1979
     53  CA       -30.8440   -0.3740  -17.4540 C.3    31  GLU31       0.1602
     54  C        -29.5130   -0.1730  -18.1830 C.2    31  GLU31       0.2287
     55  O        -28.6480   -1.0610  -18.1780 O.2    31  GLU31      -0.2864
     56  CB       -30.6640   -1.1000  -16.1180 C.3    31  GLU31       0.0415
     57  CG       -30.5550   -0.1730  -14.9170 C.3    31  GLU31       0.1163
     58  CD       -31.8010    0.6980  -14.7100 C.2    31  GLU31       0.3649
     59  OE1      -32.3520    1.2360  -15.6930 O.co2  31  GLU31      -0.2457
     60  OE2      -32.2260    0.8650  -13.5510 O.co2  31  GLU31      -0.2457
     61  N        -25.9460    0.4530  -19.4460 N.3    33  VAL33      -0.1245
     62  CA       -24.6230    0.3360  -18.8480 C.3    33  VAL33       0.1561
     63  C        -23.8110    1.6360  -18.9360 C.2    33  VAL33       0.2260
     64  O        -22.9410    1.8880  -18.1000 O.2    33  VAL33      -0.2867
     65  CB       -23.8520   -0.8960  -19.4340 C.3    33  VAL33       0.0252
     66  CG1      -22.6020   -0.4940  -20.2330 C.3    33  VAL33       0.0019
     67  CG2      -23.5200   -1.8830  -18.3360 C.3    33  VAL33       0.0019
     68  N        -24.3620    3.9550  -15.9920 N.3    36  ASN36      -0.1240
     69  CA       -23.8830    3.4110  -14.7190 C.3    36  ASN36       0.1653
     70  C        -22.5460    4.0350  -14.3000 C.2    36  ASN36       0.2266
     71  O        -21.5120    3.7350  -14.8980 O.2    36  ASN36      -0.2867
     72  CB       -23.7520    1.8890  -14.8250 C.3    36  ASN36       0.1155
     73  CG       -23.4750    1.2150  -13.4820 C.2    36  ASN36       0.2627
     74  OD1      -22.9600    1.8270  -12.5500 O.2    36  ASN36      -0.2716
     75  ND2      -23.8140   -0.0650  -13.3920 N.am   36  ASN36      -0.0877
     76  N        -19.5610    1.5010  -13.5910 N.3    39  PHE39      -0.1241
     77  CA       -19.1850    0.4800  -14.5650 C.3    39  PHE39       0.1605
     78  C        -17.7260    0.5660  -15.0290 C.2    39  PHE39       0.2264
     79  O        -17.0380   -0.4580  -15.0980 O.2    39  PHE39      -0.2867
     80  CB       -20.1500    0.5030  -15.7570 C.3    39  PHE39       0.0534
     81  CG       -20.0360   -0.6940  -16.6530 C.ar   39  PHE39      -0.0203
     82  CD1      -20.4030   -1.9630  -16.1960 C.ar   39  PHE39      -0.0042
     83  CD2      -19.5660   -0.5560  -17.9600 C.ar   39  PHE39      -0.0042
     84  CE1      -20.3040   -3.0800  -17.0280 C.ar   39  PHE39      -0.0003
     85  CE2      -19.4610   -1.6680  -18.8060 C.ar   39  PHE39      -0.0003
     86  CZ       -19.8340   -2.9320  -18.3390 C.ar   39  PHE39      -0.0000
     87  N        -15.5940   -0.7880  -12.1460 N.3    42  TYR42      -0.1227
     88  CA       -16.1290   -1.9900  -11.5260 C.3    42  TYR42       0.1736
     89  C        -15.2030   -3.2070  -11.6470 C.2    42  TYR42       0.2595
     90  O        -14.7920   -3.7880  -10.6360 O.2    42  TYR42      -0.2718
     91  CB       -17.5150   -2.2790  -12.1210 C.3    42  TYR42       0.0548
     92  CG       -18.2200   -3.5060  -11.5900 C.ar   42  TYR42      -0.0200
     93  CD1      -18.4370   -3.6830  -10.2190 C.ar   42  TYR42      -0.0009
     94  CD2      -18.7110   -4.4740  -12.4670 C.ar   42  TYR42      -0.0009
     95  CE1      -19.1000   -4.8110   -9.7370 C.ar   42  TYR42       0.0417
     96  CE2      -19.3710   -5.5940  -11.9980 C.ar   42  TYR42       0.0417
     97  CZ       -19.5650   -5.7610  -10.6370 C.ar   42  TYR42       0.1957
     98  OH       -20.2270   -6.8770  -10.1860 O.3    42  TYR42      -0.2866
     99  N        -14.8670   -3.5710  -12.8820 N.am   43  TYR43      -0.1976
    100  CA       -14.1220   -4.8040  -13.1500 C.3    43  TYR43       0.1639
    101  C        -12.6240   -4.7240  -12.8330 C.2    43  TYR43       0.2290
    102  O        -11.9760   -5.7570  -12.6700 O.2    43  TYR43      -0.2864
    103  CB       -14.3490   -5.2690  -14.5930 C.3    43  TYR43       0.0560
    104  CG       -15.7170   -5.8640  -14.8190 C.ar   43  TYR43      -0.0198
    105  CD1      -16.6710   -5.1910  -15.5710 C.ar   43  TYR43      -0.0009
    106  CD2      -16.0650   -7.0950  -14.2590 C.ar   43  TYR43      -0.0009
    107  CE1      -17.9280   -5.7270  -15.7760 C.ar   43  TYR43       0.0417
    108  CE2      -17.3220   -7.6420  -14.4550 C.ar   43  TYR43       0.0417
    109  CZ       -18.2470   -6.9500  -15.2150 C.ar   43  TYR43       0.1957
    110  OH       -19.4890   -7.4810  -15.4230 O.3    43  TYR43      -0.2866
    111  N        -21.5790   -1.0280   -6.3540 N.3    53  MET53      -0.1230
    112  CA       -22.2250   -1.3150   -7.6230 C.3    53  MET53       0.1702
    113  C        -23.5750   -2.0180   -7.4280 C.2    53  MET53       0.2592
    114  O        -24.5640   -1.6480   -8.0540 O.2    53  MET53      -0.2718
    115  CB       -21.3130   -2.1640   -8.5050 C.3    53  MET53       0.0401
    116  CG       -22.0180   -2.7580   -9.7190 C.3    53  MET53       0.0596
    117  SD       -22.4660   -1.4750  -10.8950 S.3    53  MET53      -0.1393
    118  CE       -21.0820   -1.5630  -12.0090 C.3    53  MET53       0.0692
    119  N        -23.6040   -3.0210   -6.5510 N.am   54  GLN54      -0.1979
    120  CA       -24.8030   -3.8350   -6.3820 C.3    54  GLN54       0.1601
    121  C        -25.9480   -3.1120   -5.6660 C.2    54  GLN54       0.2287
    122  O        -27.1110   -3.4150   -5.9120 O.2    54  GLN54      -0.2864
    123  CB       -24.4650   -5.1820   -5.7430 C.3    54  GLN54       0.0394
    124  CG       -23.5030   -6.0520   -6.5880 C.3    54  GLN54       0.0908
    125  CD       -24.0650   -6.4220   -7.9600 C.2    54  GLN54       0.2608
    126  OE1      -25.2750   -6.5780   -8.1270 O.2    54  GLN54      -0.2717
    127  NE2      -23.1810   -6.5600   -8.9480 N.am   54  GLN54      -0.0878
    128  N        -27.3320   -0.9460   -8.3860 N.3    57  MET57      -0.1245
    129  CA       -28.1890   -1.7770   -9.2380 C.3    57  MET57       0.1570
    130  C        -29.6010   -1.9110   -8.6600 C.2    57  MET57       0.2261
    131  O        -30.5850   -1.7110   -9.3770 O.2    57  MET57      -0.2867
    132  CB       -27.5690   -3.1640   -9.4860 C.3    57  MET57       0.0387
    133  CG       -26.2880   -3.1770  -10.3200 C.3    57  MET57       0.0595
    134  SD       -26.3220   -2.3120  -11.9130 S.3    57  MET57      -0.1393
    135  CE       -27.8620   -2.8930  -12.6280 C.3    57  MET57       0.0692
    136  N        -32.9770   -0.2410  -10.5360 N.3    61  ARG61      -0.1245
    137  CA       -34.0360   -1.1720  -10.8980 C.3    61  ARG61       0.1563
    138  C        -35.3570   -0.8400  -10.1850 C.2    61  ARG61       0.2260
    139  O        -36.4280   -1.0380  -10.7500 O.2    61  ARG61      -0.2867
    140  CB       -33.5940   -2.6120  -10.6110 C.3    61  ARG61       0.0307
    141  CG       -34.2870   -3.6910  -11.4470 C.3    61  ARG61       0.0489
    142  CD       -33.6940   -3.8430  -12.8540 C.3    61  ARG61       0.2205
    143  NE       -32.3210   -4.3520  -12.8300 N.pl3  61  ARG61      -0.0865
    144  CZ       -31.5490   -4.5150  -13.9040 C.cat  61  ARG61       0.5346
    145  NH1      -31.9970   -4.2170  -15.1170 N.pl3  61  ARG61       0.1354
    146  NH2      -30.3180   -4.9830  -13.7620 N.pl3  61  ARG61       0.1354
    147  N        -35.6310   -6.2750  -19.7330 N.3    71  ASP71      -0.1225
    148  CA       -34.3130   -6.7080  -20.1740 C.3    71  ASP71       0.1805
    149  C        -33.4440   -6.8880  -18.9250 C.2    71  ASP71       0.2597
    150  O        -32.7930   -5.9470  -18.4650 O.2    71  ASP71      -0.2718
    151  CB       -33.7390   -5.6680  -21.1510 C.3    71  ASP71       0.1424
    152  CG       -32.3550   -6.0170  -21.6620 C.2    71  ASP71       0.3668
    153  OD1      -31.7860   -7.0340  -21.2410 O.co2  71  ASP71      -0.2456
    154  OD2      -31.8290   -5.2510  -22.4960 O.co2  71  ASP71      -0.2456
    155  N        -33.4620   -8.1090  -18.3880 N.am   72  ARG72      -0.1979
    156  CA       -32.9870   -8.4370  -17.0310 C.3    72  ARG72       0.1597
    157  C        -33.9280   -7.8790  -15.9490 C.2    72  ARG72       0.2287
    158  O        -34.5280   -6.8190  -16.1220 O.2    72  ARG72      -0.2864
    159  CB       -31.4950   -8.0750  -16.8040 C.3    72  ARG72       0.0334
    160  CG       -30.9960   -8.2060  -15.3420 C.3    72  ARG72       0.0492
    161  CD       -29.6700   -8.9600  -15.2320 C.3    72  ARG72       0.2205
    162  NE       -28.5600   -8.2390  -15.8480 N.pl3  72  ARG72      -0.0865
    163  CZ       -27.5150   -8.8190  -16.4370 C.cat  72  ARG72       0.5346
    164  NH1      -27.4170  -10.1470  -16.5110 N.pl3  72  ARG72       0.1354
    165  NH2      -26.5670   -8.0610  -16.9700 N.pl3  72  ARG72       0.1354
    166  N        -30.2700   -9.4970   -9.8960 N.3    77  ASP77      -0.1239
    167  CA       -29.2110   -8.7390   -9.2340 C.3    77  ASP77       0.1674
    168  C        -28.5200   -9.4650   -8.0680 C.2    77  ASP77       0.2266
    169  O        -27.2900   -9.4720   -8.0150 O.2    77  ASP77      -0.2867
    170  CB       -29.6960   -7.3500   -8.8170 C.3    77  ASP77       0.1410
    171  CG       -30.0760   -6.4860  -10.0010 C.2    77  ASP77       0.3668
    172  OD1      -29.3010   -6.4030  -10.9790 O.co2  77  ASP77      -0.2456
    173  OD2      -31.1630   -5.8910   -9.9470 O.co2  77  ASP77      -0.2456
    174  N        -25.5260  -11.7650   -8.8890 N.3    80  PHE80      -0.1241
    175  CA       -24.2170  -11.1410   -9.0300 C.3    80  PHE80       0.1605
    176  C        -23.5030  -10.9190   -7.6970 C.2    80  PHE80       0.2264
    177  O        -22.2780  -11.0050   -7.6360 O.2    80  PHE80      -0.2867
    178  CB       -24.3370   -9.8400   -9.8090 C.3    80  PHE80       0.0534
    179  CG       -24.5980  -10.0440  -11.2650 C.ar   80  PHE80      -0.0203
    180  CD1      -25.8700  -10.3720  -11.7210 C.ar   80  PHE80      -0.0042
    181  CD2      -23.5680   -9.9180  -12.1880 C.ar   80  PHE80      -0.0042
    182  CE1      -26.1070  -10.5660  -13.0790 C.ar   80  PHE80      -0.0003
    183  CE2      -23.8010  -10.1050  -13.5450 C.ar   80  PHE80      -0.0003
    184  CZ       -25.0690  -10.4340  -13.9920 C.ar   80  PHE80      -0.0000
    185  N        -18.8230   -7.9500  -28.7120 N.3   133  ARG133     -0.1245
    186  CA       -19.3800   -6.6670  -28.2940 C.3   133  ARG133      0.1563
    187  C        -18.2490   -5.6800  -27.9910 C.2   133  ARG133      0.2260
    188  O        -18.3290   -4.5020  -28.3500 O.2   133  ARG133     -0.2867
    189  CB       -20.3040   -6.8560  -27.0840 C.3   133  ARG133      0.0307
    190  CG       -20.9800   -5.5800  -26.5660 C.3   133  ARG133      0.0489
    191  CD       -22.0680   -5.9010  -25.5370 C.3   133  ARG133      0.2205
    192  NE       -21.5690   -6.7130  -24.4220 N.pl3 133  ARG133     -0.0865
    193  CZ       -22.3370   -7.4460  -23.6200 C.cat 133  ARG133      0.5346
    194  NH1      -21.7910   -8.1500  -22.6310 N.pl3 133  ARG133      0.1354
    195  NH2      -23.6490   -7.4830  -23.8030 N.pl3 133  ARG133      0.1354
    196  N        -16.8630   -4.4610  -25.0670 N.3   135  ARG135     -0.1245
    197  CA       -16.7720   -3.6160  -23.8610 C.3   135  ARG135      0.1563
    198  C        -15.4300   -3.8470  -23.1630 C.2   135  ARG135      0.2260
    199  O        -15.1970   -4.9060  -22.5680 O.2   135  ARG135     -0.2867
    200  CB       -17.9170   -3.8830  -22.8770 C.3   135  ARG135      0.0307
    201  CG       -18.9590   -2.7820  -22.7790 C.3   135  ARG135      0.0489
    202  CD       -20.3550   -3.2130  -23.2170 C.3   135  ARG135      0.2205
    203  NE       -20.9720   -4.1540  -22.2900 N.pl3 135  ARG135     -0.0865
    204  CZ       -22.2850   -4.3220  -22.1220 C.cat 135  ARG135      0.5346
    205  NH1      -23.1700   -3.5940  -22.7910 N.pl3 135  ARG135      0.1354
    206  NH2      -22.7200   -5.2280  -21.2640 N.pl3 135  ARG135      0.1354
    207  N        -15.4780   -5.2910  -19.5720 N.3   138  GLU138     -0.1245
    208  CA       -15.7660   -6.7240  -19.4570 C.3   138  GLU138      0.1567
    209  C        -14.6040   -7.6130  -19.9140 C.2   138  GLU138      0.2260
    210  O        -14.4740   -8.7560  -19.4690 O.2   138  GLU138     -0.2867
    211  CB       -17.0470   -7.0640  -20.2220 C.3   138  GLU138      0.0388
    212  CG       -18.2850   -6.4300  -19.6050 C.3   138  GLU138      0.1160
    213  CD       -19.5260   -6.5530  -20.4580 C.2   138  GLU138      0.3649
    214  OE1      -19.4420   -7.0500  -21.6070 O.co2 138  GLU138     -0.2457
    215  OE2      -20.6000   -6.1350  -19.9660 O.co2 138  GLU138     -0.2457
    216  N        -14.7330  -15.9340  -13.5980 N.3   145  TYR145     -0.1241
    217  CA       -15.8550  -15.0600  -13.2690 C.3   145  TYR145      0.1605
    218  C        -17.1110  -15.4280  -14.0690 C.2   145  TYR145      0.2264
    219  O        -18.1660  -15.6710  -13.4850 O.2   145  TYR145     -0.2867
    220  CB       -15.4980  -13.5780  -13.4780 C.3   145  TYR145      0.0534
    221  CG       -16.5890  -12.6330  -12.9940 C.ar  145  TYR145     -0.0201
    222  CD1      -16.6870  -12.2850  -11.6440 C.ar  145  TYR145     -0.0009
    223  CD2      -17.5400  -12.1140  -13.8810 C.ar  145  TYR145     -0.0009
    224  CE1      -17.6930  -11.4400  -11.1910 C.ar  145  TYR145      0.0417
    225  CE2      -18.5510  -11.2650  -13.4350 C.ar  145  TYR145      0.0417
    226  CZ       -18.6170  -10.9320  -12.0860 C.ar  145  TYR145      0.1957
    227  OH       -19.6110  -10.0910  -11.6300 O.3   145  TYR145     -0.2866
@<TRIPOS>BOND
     1    42    40    1
     2    39    38    2
     3    40    41    1
     4    40    37    1
     5    38    37    1
     6    37    36    1
     7   185   186    1
     8   188   187    2
     9   186   187    1
    10   186   189    1
    11    36    32   am
    12    33    32    2
    13   189   190    1
    14    32    31    1
    15   190   191    1
    16    20    19    2
    17    35    34    1
    18    18    19    1
    19    18    17    1
    20   191   192    1
    21    19    21   am
    22    31    34    1
    23    31    30    1
    24    15    14    2
    25   196   197    1
    26    11    10    2
    27    17    14   am
    28    24    23    2
    29    30    23   am
    30    14    13    1
    31   192   193    2
    32    23    22    1
    33    21    22    1
    34   197   198    1
    35   197   200    1
    36   195   193    1
    37    10     9    1
    38    10    12   am
    39   193   194    1
    40    22    25    1
    41    13    12    1
    42    13    16    1
    43   202   201    1
    44   202   203    1
    45     9     8    1
    46   198   199    2
    47    49    50    1
    48    49    48    1
    49   200   201    1
    50   205   204    1
    51   154   152   ar
    52    50    51    1
    53    48    47    1
    54   203   204    2
    55   204   206    1
    56    25    26    1
    57     8     3   am
    58   152   153   ar
    59   152   151    1
    60   214   213   ar
    61    47    44    1
    62    26    27    1
    63   151   148    1
    64     4     3    2
    65     3     2    1
    66   213   215   ar
    67   213   212    1
    68    66    65    1
    69   211   212    1
    70   211   208    1
    71   148   147    1
    72   148   149    1
    73    44    43    1
    74    44    45    1
    75   209   210    2
    76   209   208    1
    77    27    28    1
    78     6     5    1
    79    29    28    1
    80   207   208    1
    81     2     5    1
    82     2     1    1
    83    61    62    1
    84    65    62    1
    85    65    67    1
    86    63    62    1
    87    63    64    2
    88   149   150    2
    89   149   155   am
    90    85    86   ar
    91    85    83   ar
    92    45    46    2
    93    45    52   am
    94     5     7    1
    95   155   156    1
    96    52    53    1
    97    86    84   ar
    98    54    55    2
    99    54    53    1
   100    83    81   ar
   101    53    56    1
   102   156   159    1
   103   156   157    1
   104    84    82   ar
   105   165   163    1
   106   159   160    1
   107    81    82   ar
   108    81    80    1
   109   164   163    1
   110   163   162    2
   111   158   157    2
   112    56    57    1
   113    68    69    1
   114   162   161    1
   115   107   105   ar
   116   107   109   ar
   117    80    77    1
   118    59    58   ar
   119   105   104   ar
   120   110   109    1
   121   160   161    1
   122   109   108   ar
   123   145   144    1
   124    79    78    2
   125    78    77    1
   126    57    58    1
   127    71    70    2
   128    72    69    1
   129    72    73    1
   130   104   103    1
   131   104   106   ar
   132    69    70    1
   133    58    60   ar
   134   103   100    1
   135    77    76    1
   136   108   106   ar
   137   218   219    2
   138   218   217    1
   139   184   183   ar
   140   184   182   ar
   141   144   146    1
   142   144   143    2
   143   223   225   ar
   144   223   221   ar
   145   216   217    1
   146   183   181   ar
   147    73    75   am
   148    73    74    2
   149   220   217    1
   150   220   221    1
   151   225   226   ar
   152   100    99    1
   153   100   101    1
   154   182   180   ar
   155   221   222   ar
   156    99    89   am
   157   142   143    1
   158   142   141    1
   159   101   102    2
   160   135   134    1
   161    94    96   ar
   162    94    92   ar
   163   181   179   ar
   164    87    88    1
   165    91    92    1
   166    91    88    1
   167   226   227    1
   168   226   224   ar
   169   118   117    1
   170    96    97   ar
   171   134   133    1
   172   180   179   ar
   173    89    88    1
   174    89    90    2
   175   222   224   ar
   176    92    93   ar
   177   141   140    1
   178   179   178    1
   179   172   171   ar
   180   137   140    1
   181   137   136    1
   182   137   138    1
   183   117   116    1
   184   139   138    2
   185    97    98    1
   186    97    95   ar
   187   133   132    1
   188    93    95   ar
   189   171   173   ar
   190   171   170    1
   191   166   167    1
   192   178   175    1
   193   116   115    1
   194   132   129    1
   195   131   130    2
   196   129   130    1
   197   129   128    1
   198   167   170    1
   199   167   168    1
   200   175   174    1
   201   175   176    1
   202   127   125   am
   203   115   112    1
   204   126   125    2
   205   168   169    2
   206   114   113    2
   207   125   124    1
   208   176   177    2
   209   112   113    1
   210   112   111    1
   211   113   119   am
   212   124   123    1
   213   119   120    1
   214   120   123    1
   215   120   121    1
   216   122   121    2
