@<TRIPOS>MOLECULE
tmp/2jasC00.pdb
 220 212 0 0 0
SMALL
GASTEIGER

@<TRIPOS>ATOM
      1  N        -54.5900   34.5890  -21.0770 N.3    10  VAL10      -0.1231
      2  CA       -53.9780   35.5750  -21.9350 C.3    10  VAL10       0.1692
      3  C        -52.4910   35.2610  -22.0230 C.2    10  VAL10       0.2593
      4  O        -51.8280   35.0520  -20.9940 O.2    10  VAL10      -0.2718
      5  CB       -54.2300   36.9980  -21.3890 C.3    10  VAL10       0.0266
      6  CG1      -53.5250   38.0580  -22.2270 C.3    10  VAL10       0.0020
      7  CG2      -55.7490   37.2810  -21.3180 C.3    10  VAL10       0.0020
      8  N        -51.9880   35.1800  -23.2570 N.am   11  GLY11      -0.1942
      9  CA       -50.6020   34.8340  -23.5120 C.3    11  GLY11       0.2014
     10  C        -50.3010   33.3480  -23.5080 C.2    11  GLY11       0.2639
     11  O        -49.1290   32.9600  -23.5160 O.2    11  GLY11      -0.2714
     12  N        -51.3380   32.5060  -23.5090 N.am   12  ALA12      -0.1963
     13  CA       -51.1070   31.0520  -23.4990 C.3    12  ALA12       0.1728
     14  C        -50.6000   30.5520  -24.8470 C.2    12  ALA12       0.2617
     15  O        -49.9750   29.4890  -24.9120 O.2    12  ALA12      -0.2715
     16  CB       -52.3590   30.2830  -23.0800 C.3    12  ALA12       0.0334
     17  N        -50.8840   31.3150  -25.9100 N.am   13  GLY13      -0.1940
     18  CA       -50.5120   30.9570  -27.2800 C.3    13  GLY13       0.2014
     19  C        -51.6630   30.5230  -28.1860 C.2    13  GLY13       0.2639
     20  O        -51.4390   29.8590  -29.2090 O.2    13  GLY13      -0.2714
     21  N        -52.8910   30.9010  -27.8180 N.am   14  LYS14      -0.1963
     22  CA       -54.1020   30.5240  -28.5610 C.3    14  LYS14       0.1728
     23  C        -54.1180   31.0920  -29.9770 C.2    14  LYS14       0.2616
     24  O        -54.6540   30.4730  -30.9060 O.2    14  LYS14      -0.2715
     25  CB       -55.3590   31.0110  -27.8370 C.3    14  LYS14       0.0311
     26  CG       -55.5710   30.4400  -26.4510 C.3    14  LYS14       0.0038
     27  CD       -56.9470   30.8050  -25.8940 C.3    14  LYS14       0.0206
     28  CE       -57.0960   32.3030  -25.6090 C.3    14  LYS14       0.1093
     29  NZ       -56.0540   32.7860  -24.6660 N.3    14  LYS14      -0.1314
     30  N        -53.5550   32.2900  -30.1240 N.am   15  SER15      -0.1950
     31  CA       -53.5290   32.9710  -31.4080 C.3    15  SER15       0.1924
     32  C        -52.5760   32.2600  -32.3550 C.2    15  SER15       0.2314
     33  O        -52.9050   32.0420  -33.5100 O.2    15  SER15      -0.2863
     34  CB       -53.1220   34.4260  -31.2170 C.3    15  SER15       0.2116
     35  OG       -51.7790   34.5200  -30.7740 O.3    15  SER15      -0.2180
     36  N        -62.0190   35.0200  -34.1670 N.3    31  LYS31      -0.1231
     37  CA       -61.2910   35.7130  -33.1080 C.3    31  LYS31       0.1693
     38  C        -62.1710   36.8160  -32.5220 C.2    31  LYS31       0.2592
     39  O        -62.9530   37.4340  -33.2520 O.2    31  LYS31      -0.2718
     40  CB       -59.9720   36.3110  -33.6210 C.3    31  LYS31       0.0285
     41  CG       -59.0300   35.3110  -34.2820 C.3    31  LYS31       0.0035
     42  CD       -57.5490   35.5960  -33.9740 C.3    31  LYS31       0.0206
     43  CE       -56.6450   34.9860  -35.0570 C.3    31  LYS31       0.1093
     44  NZ       -55.4020   34.3070  -34.5490 N.3    31  LYS31      -0.1314
     45  N        -62.0330   37.0550  -31.2110 N.am   32  GLU32      -0.1966
     46  CA       -62.7850   38.1090  -30.5200 C.3    32  GLU32       0.1718
     47  C        -62.3590   39.4890  -30.9990 C.2    32  GLU32       0.2458
     48  O        -61.2490   39.6570  -31.5040 O.2    32  GLU32      -0.2730
     49  CB       -62.5540   38.0900  -29.0090 C.3    32  GLU32       0.0428
     50  CG       -61.9970   36.8330  -28.4260 C.3    32  GLU32       0.1163
     51  CD       -61.1970   37.1240  -27.1800 C.2    32  GLU32       0.3649
     52  OE1      -60.0270   37.5300  -27.3190 O.co2  32  GLU32      -0.2457
     53  OE2      -61.7370   36.9520  -26.0680 O.co2  32  GLU32      -0.2457
     54  N        -63.2410   40.4880  -30.8290 N.am   33  PRO33      -0.2716
     55  CA       -62.8100   41.8720  -31.0050 C.3    33  PRO33       0.1536
     56  C        -61.7160   42.2340  -30.0070 C.2    33  PRO33       0.2598
     57  O        -61.8350   41.9270  -28.8160 O.2    33  PRO33      -0.2715
     58  CB       -64.0830   42.6770  -30.7150 C.3    33  PRO33       0.0310
     59  CG       -65.1900   41.7230  -30.9580 C.3    33  PRO33       0.0237
     60  CD       -64.6750   40.3980  -30.5090 C.3    33  PRO33       0.0939
     61  N        -60.6470   42.8500  -30.5030 N.am   34  VAL34      -0.1978
     62  CA       -59.5980   43.3760  -29.6420 C.3    34  VAL34       0.1596
     63  C        -59.3130   44.8160  -30.0480 C.2    34  VAL34       0.2287
     64  O        -59.6080   45.7290  -29.2890 O.2    34  VAL34      -0.2864
     65  CB       -58.3060   42.5130  -29.6630 C.3    34  VAL34       0.0276
     66  CG1      -57.2970   43.0460  -28.6620 C.3    34  VAL34       0.0022
     67  CG2      -58.6170   41.0520  -29.3480 C.3    34  VAL34       0.0022
     68  N        -60.9850   48.7200  -25.0380 N.3    40  PHE40      -0.1241
     69  CA       -59.7410   47.9820  -24.8010 C.3    40  PHE40       0.1605
     70  C        -58.6260   48.7620  -24.0820 C.2    40  PHE40       0.2264
     71  O        -58.0760   48.2850  -23.0900 O.2    40  PHE40      -0.2867
     72  CB       -59.2130   47.3160  -26.0750 C.3    40  PHE40       0.0534
     73  CG       -58.2590   46.1980  -25.8010 C.ar   40  PHE40      -0.0203
     74  CD1      -58.7190   44.9930  -25.2950 C.ar   40  PHE40      -0.0042
     75  CD2      -56.8950   46.3600  -26.0190 C.ar   40  PHE40      -0.0042
     76  CE1      -57.8320   43.9470  -25.0320 C.ar   40  PHE40      -0.0003
     77  CE2      -56.0020   45.3340  -25.7590 C.ar   40  PHE40      -0.0003
     78  CZ       -56.4650   44.1200  -25.2630 C.ar   40  PHE40      -0.0000
     79  N        -59.8470   49.9790  -20.5190 N.3    43  TYR43      -0.1227
     80  CA       -59.9220   48.8950  -19.5540 C.3    43  TYR43       0.1736
     81  C        -58.6040   48.7530  -18.7860 C.2    43  TYR43       0.2595
     82  O        -58.5890   48.8530  -17.5620 O.2    43  TYR43      -0.2718
     83  CB       -60.3200   47.5950  -20.2670 C.3    43  TYR43       0.0548
     84  CG       -60.3950   46.3780  -19.3850 C.ar   43  TYR43      -0.0200
     85  CD1      -61.4900   46.1670  -18.5380 C.ar   43  TYR43      -0.0009
     86  CD2      -59.3960   45.4220  -19.4120 C.ar   43  TYR43      -0.0009
     87  CE1      -61.5730   45.0320  -17.7280 C.ar   43  TYR43       0.0417
     88  CE2      -59.4710   44.2820  -18.6030 C.ar   43  TYR43       0.0417
     89  CZ       -60.5580   44.1010  -17.7670 C.ar   43  TYR43       0.1957
     90  OH       -60.6250   42.9870  -16.9860 O.3    43  TYR43      -0.2866
     91  N        -57.5040   48.5640  -19.5140 N.am   44  TYR44      -0.1976
     92  CA       -56.1920   48.3450  -18.9020 C.3    44  TYR44       0.1639
     93  C        -55.5730   49.5950  -18.2230 C.2    44  TYR44       0.2290
     94  O        -54.5610   49.4860  -17.5330 O.2    44  TYR44      -0.2864
     95  CB       -55.2260   47.7480  -19.9280 C.3    44  TYR44       0.0560
     96  CG       -55.4750   46.2860  -20.2660 C.ar   44  TYR44      -0.0198
     97  CD1      -55.9000   45.8950  -21.5450 C.ar   44  TYR44      -0.0009
     98  CD2      -55.2750   45.2890  -19.3170 C.ar   44  TYR44      -0.0009
     99  CE1      -56.1190   44.5400  -21.8520 C.ar   44  TYR44       0.0417
    100  CE2      -55.4910   43.9460  -19.6150 C.ar   44  TYR44       0.0417
    101  CZ       -55.9080   43.5760  -20.8740 C.ar   44  TYR44       0.1957
    102  OH       -56.1130   42.2400  -21.1440 O.3    44  TYR44      -0.2866
    103  N        -66.9990   46.8270  -20.4560 N.3    54  MET54      -0.1230
    104  CA       -66.1480   45.8230  -21.1000 C.3    54  MET54       0.1702
    105  C        -66.8390   44.4580  -21.2200 C.2    54  MET54       0.2592
    106  O        -66.7800   43.8040  -22.2720 O.2    54  MET54      -0.2718
    107  CB       -64.8300   45.6870  -20.3270 C.3    54  MET54       0.0401
    108  CG       -63.8400   44.6880  -20.9070 C.3    54  MET54       0.0596
    109  SD       -63.1190   45.2590  -22.4450 S.3    54  MET54      -0.1393
    110  CE       -61.8410   44.0320  -22.6860 C.3    54  MET54       0.0692
    111  N        -67.4840   44.0370  -20.1330 N.am   55  GLN55      -0.1979
    112  CA       -68.2410   42.7870  -20.1010 C.3    55  GLN55       0.1601
    113  C        -69.4160   42.7880  -21.0850 C.2    55  GLN55       0.2287
    114  O        -69.5920   41.8350  -21.8480 O.2    55  GLN55      -0.2864
    115  CB       -68.7370   42.5170  -18.6850 C.3    55  GLN55       0.0394
    116  CG       -67.6490   42.0540  -17.7590 C.3    55  GLN55       0.0908
    117  CD       -67.1320   40.6660  -18.0960 C.2    55  GLN55       0.2608
    118  OE1      -65.9190   40.4400  -18.1400 O.2    55  GLN55      -0.2717
    119  NE2      -68.0460   39.7310  -18.3420 N.am   55  GLN55      -0.0878
    120  N        -68.2920   42.4840  -24.7120 N.3    58  MET58      -0.1245
    121  CA       -67.7570   41.1590  -25.0310 C.3    58  MET58       0.1570
    122  C        -68.8520   40.1050  -25.1090 C.2    58  MET58       0.2261
    123  O        -68.7880   39.2030  -25.9480 O.2    58  MET58      -0.2867
    124  CB       -66.6600   40.7560  -24.0450 C.3    58  MET58       0.0387
    125  CG       -65.3620   41.5430  -24.2150 C.3    58  MET58       0.0595
    126  SD       -64.3940   41.0680  -25.6770 S.3    58  MET58      -0.1393
    127  CE       -64.9180   42.2640  -26.8690 C.3    58  MET58       0.0692
    128  N        -69.6210   37.7610  -28.3260 N.3    62  ARG62      -0.1245
    129  CA       -69.9210   36.3380  -28.2060 C.3    62  ARG62       0.1563
    130  C        -71.2400   35.9720  -28.8960 C.2    62  ARG62       0.2260
    131  O        -71.3190   34.9970  -29.6430 O.2    62  ARG62      -0.2867
    132  CB       -69.9910   35.9590  -26.7190 C.3    62  ARG62       0.0307
    133  CG       -68.7860   35.2220  -26.1340 C.3    62  ARG62       0.0489
    134  CD       -67.4100   35.7660  -26.5340 C.3    62  ARG62       0.2205
    135  NE       -66.7020   36.4350  -25.4410 N.pl3  62  ARG62      -0.0865
    136  CZ       -65.3920   36.6770  -25.4430 C.cat  62  ARG62       0.5346
    137  NH1      -64.8220   37.2970  -24.4190 N.pl3  62  ARG62       0.1354
    138  NH2      -64.6360   36.2880  -26.4660 N.pl3  62  ARG62       0.1354
    139  N        -61.0730   30.6310  -31.3000 N.3    78  ASP78      -0.1225
    140  CA       -60.0900   31.0930  -30.3310 C.3    78  ASP78       0.1805
    141  C        -60.8910   31.6620  -29.1510 C.2    78  ASP78       0.2597
    142  O        -61.4520   32.7670  -29.2350 O.2    78  ASP78      -0.2718
    143  CB       -59.1630   32.1300  -30.9890 C.3    78  ASP78       0.1424
    144  CG       -58.2350   32.8400  -30.0020 C.2    78  ASP78       0.3668
    145  OD1      -58.3040   32.5970  -28.7830 O.co2  78  ASP78      -0.2456
    146  OD2      -57.4240   33.6680  -30.4600 O.co2  78  ASP78      -0.2456
    147  N        -60.9570   30.8850  -28.0700 N.am   79  ARG79      -0.1979
    148  CA       -61.8050   31.1670  -26.8900 C.3    79  ARG79       0.1597
    149  C        -63.2770   30.8370  -27.1270 C.2    79  ARG79       0.2287
    150  O        -63.8470   31.2620  -28.1220 O.2    79  ARG79      -0.2864
    151  CB       -61.6260   32.6060  -26.3640 C.3    79  ARG79       0.0334
    152  CG       -62.7600   33.0960  -25.4800 C.3    79  ARG79       0.0492
    153  CD       -62.3180   34.0030  -24.3170 C.3    79  ARG79       0.2205
    154  NE       -61.1690   34.8450  -24.6360 N.pl3  79  ARG79      -0.0865
    155  CZ       -60.0850   34.9720  -23.8730 C.cat  79  ARG79       0.5346
    156  NH1      -59.9770   34.3350  -22.7140 N.pl3  79  ARG79       0.1354
    157  NH2      -59.1010   35.7610  -24.2650 N.pl3  79  ARG79       0.1354
    158  N        -66.3270   34.6870  -20.2750 N.3    84  ASP84      -0.1239
    159  CA       -66.3670   36.0590  -19.7700 C.3    84  ASP84       0.1674
    160  C        -66.4360   36.1680  -18.2360 C.2    84  ASP84       0.2266
    161  O        -65.7420   37.0150  -17.6580 O.2    84  ASP84      -0.2867
    162  CB       -67.4850   36.8650  -20.4370 C.3    84  ASP84       0.1410
    163  CG       -67.2250   37.1160  -21.9210 C.2    84  ASP84       0.3668
    164  OD1      -66.1770   37.7100  -22.2500 O.co2  84  ASP84      -0.2456
    165  OD2      -68.0710   36.7190  -22.7580 O.co2  84  ASP84      -0.2456
    166  N        -63.0580   36.5080  -16.2640 N.3    87  PHE87      -0.1241
    167  CA       -62.5310   37.8660  -16.1550 C.3    87  PHE87       0.1605
    168  C        -63.2740   38.7140  -15.1210 C.2    87  PHE87       0.2264
    169  O        -62.6700   39.5880  -14.4940 O.2    87  PHE87      -0.2867
    170  CB       -62.5610   38.5790  -17.5100 C.3    87  PHE87       0.0534
    171  CG       -61.6100   38.0040  -18.5250 C.ar   87  PHE87      -0.0203
    172  CD1      -62.0140   36.9670  -19.3750 C.ar   87  PHE87      -0.0042
    173  CD2      -60.3130   38.5060  -18.6460 C.ar   87  PHE87      -0.0042
    174  CE1      -61.1280   36.4280  -20.3140 C.ar   87  PHE87      -0.0003
    175  CE2      -59.4300   37.9860  -19.5890 C.ar   87  PHE87      -0.0003
    176  CZ       -59.8360   36.9430  -20.4180 C.ar   87  PHE87      -0.0000
    177  N        -61.4740   40.4360  -11.5580 N.3    91  ASN91      -0.1240
    178  CA       -61.7040   41.7920  -11.0780 C.3    91  ASN91       0.1653
    179  C        -62.3790   41.8560   -9.7070 C.2    91  ASN91       0.2266
    180  O        -62.1970   42.8250   -8.9620 O.2    91  ASN91      -0.2867
    181  CB       -62.5490   42.5610  -12.0880 C.3    91  ASN91       0.1155
    182  CG       -61.7630   42.9780  -13.3030 C.2    91  ASN91       0.2627
    183  OD1      -60.8820   43.8330  -13.2170 O.2    91  ASN91      -0.2716
    184  ND2      -62.0820   42.3870  -14.4490 N.am   91  ASN91      -0.0877
    185  N        -45.6510   38.8240  -28.1100 N.3   140  ARG140     -0.1231
    186  CA       -46.7730   38.5830  -29.0260 C.3   140  ARG140      0.1694
    187  C        -48.0580   39.2820  -28.6290 C.2   140  ARG140      0.2592
    188  O        -48.9180   39.5030  -29.4800 O.2   140  ARG140     -0.2718
    189  CB       -47.0630   37.0890  -29.1450 C.3   140  ARG140      0.0321
    190  CG       -46.4880   36.4370  -30.3660 C.3   140  ARG140      0.0489
    191  CD       -46.5690   34.9320  -30.2200 C.3   140  ARG140      0.2205
    192  NE       -45.6310   34.4430  -29.2040 N.pl3 140  ARG140     -0.0865
    193  CZ       -44.3570   34.1450  -29.4430 C.cat 140  ARG140      0.5346
    194  NH1      -43.8570   34.2760  -30.6620 N.pl3 140  ARG140      0.1354
    195  NH2      -43.5800   33.7170  -28.4630 N.pl3 140  ARG140      0.1354
    196  N        -48.2080   39.5950  -27.3410 N.am  141  GLY141     -0.1957
    197  CA       -49.4350   40.2070  -26.8390 C.3   141  GLY141      0.1869
    198  C        -49.6370   41.6470  -27.2570 C.2   141  GLY141      0.2309
    199  O        -48.8310   42.2170  -27.9960 O.2   141  GLY141     -0.2863
    200  N        -51.7900   45.3840  -22.6260 N.3   145  GLU145     -0.1245
    201  CA       -51.7250   44.3250  -21.6300 C.3   145  GLU145      0.1567
    202  C        -50.5300   44.4790  -20.6840 C.2   145  GLU145      0.2260
    203  O        -50.4550   43.8090  -19.6590 O.2   145  GLU145     -0.2867
    204  CB       -51.7020   42.9540  -22.3170 C.3   145  GLU145      0.0388
    205  CG       -52.9500   42.6740  -23.1720 C.3   145  GLU145      0.1160
    206  CD       -52.8080   41.4890  -24.1370 C.2   145  GLU145      0.3649
    207  OE1      -51.6790   41.0670  -24.4730 O.co2 145  GLU145     -0.2457
    208  OE2      -53.8480   40.9750  -24.5740 O.co2 145  GLU145     -0.2457
    209  N        -52.8730   40.6050  -11.7330 N.3   152  TYR152     -0.1241
    210  CA       -53.9330   40.3420  -12.6890 C.3   152  TYR152      0.1605
    211  C        -53.7060   38.9990  -13.3890 C.2   152  TYR152      0.2264
    212  O        -54.5850   38.1320  -13.3510 O.2   152  TYR152     -0.2867
    213  CB       -54.0460   41.4870  -13.7020 C.3   152  TYR152      0.0534
    214  CG       -55.2890   41.4310  -14.5630 C.ar  152  TYR152     -0.0201
    215  CD1      -56.5070   41.9380  -14.1030 C.ar  152  TYR152     -0.0009
    216  CD2      -55.2480   40.8800  -15.8440 C.ar  152  TYR152     -0.0009
    217  CE1      -57.6530   41.8870  -14.8950 C.ar  152  TYR152      0.0417
    218  CE2      -56.3830   40.8250  -16.6370 C.ar  152  TYR152      0.0417
    219  CZ       -57.5810   41.3280  -16.1550 C.ar  152  TYR152      0.1957
    220  OH       -58.7080   41.2690  -16.9400 O.3   152  TYR152     -0.2866
@<TRIPOS>BOND
     1    43    44    1
     2    43    42    1
     3    41    42    1
     4    41    40    1
     5    36    37    1
     6    40    37    1
     7    33    32    2
     8    39    38    2
     9    37    38    1
    10    38    45   am
    11    32    31    1
    12    48    47    2
    13    31    34    1
    14    31    30    1
    15   139   140    1
    16    34    35    1
    17    45    46    1
    18    55    54    1
    19    55    58    1
    20    55    56    1
    21    47    54   am
    22    47    46    1
    23   143   140    1
    24   143   144    1
    25    59    58    1
    26    59    60    1
    27    24    23    2
    28    54    60    1
    29   194   193    1
    30    46    49    1
    31    61    56   am
    32    61    62    1
    33   146   144   ar
    34   190   191    1
    35   190   189    1
    36   140   141    1
    37   191   192    1
    38    30    23   am
    39    63    62    1
    40    63    64    2
    41    56    57    2
    42   144   145   ar
    43    23    22    1
    44    65    62    1
    45    65    67    1
    46    65    66    1
    47   131   130    2
    48   188   187    2
    49   193   192    2
    50   193   195    1
    51   142   141    2
    52    20    19    2
    53   141   147   am
    54   189   186    1
    55   186   187    1
    56   186   185    1
    57    49    50    1
    58   130   129    1
    59   187   196   am
    60    22    25    1
    61    22    21    1
    62    50    51    1
    63   128   129    1
    64   129   132    1
    65    19    21   am
    66    19    18    1
    67   150   149    2
    68   147   148    1
    69   199   198    2
    70    25    26    1
    71   196   197    1
    72    52    51   ar
    73    18    17    1
    74   198   197    1
    75    51    53   ar
    76   149   148    1
    77   148   151    1
    78   127   126    1
    79   132   133    1
    80   134   133    1
    81   134   135    1
    82   138   136    1
    83    26    27    1
    84   151   152    1
    85    72    73    1
    86    72    69    1
    87    75    73   ar
    88    75    77   ar
    89   123   122    2
    90    17    14   am
    91    27    28    1
    92    73    74   ar
    93    77    78   ar
    94   126   125    1
    95    28    29    1
    96   152   153    1
    97   136   135    2
    98   136   137    1
    99    74    76   ar
   100    78    76   ar
   101   122   121    1
   102    68    69    1
   103   121   120    1
   104   121   124    1
   105    15    14    2
   106    14    13    1
   107    69    70    1
   108   154   153    1
   109   154   155    2
   110   208   206   ar
   111   207   206   ar
   112   157   155    1
   113   125   124    1
   114   206   205    1
   115    70    71    2
   116   155   156    1
   117    11    10    2
   118     9    10    1
   119     9     8    1
   120    12    10   am
   121    12    13    1
   122    13    16    1
   123     8     3   am
   124   205   204    1
   125   165   163   ar
   126   110   109    1
   127   200   201    1
   128   109   108    1
   129   204   201    1
   130   106   105    2
   131   164   163   ar
   132     6     5    1
   133     3     2    1
   134     3     4    2
   135     2     5    1
   136     2     1    1
   137   163   162    1
   138    99    97   ar
   139    99   101   ar
   140   114   113    2
   141   201   202    1
   142    97    96   ar
   143     5     7    1
   144   105   104    1
   145   105   111   am
   146   102   101    1
   147   104   103    1
   148   104   107    1
   149   113   112    1
   150   108   107    1
   151   101   100   ar
   152   202   203    2
   153    79    80    1
   154   162   159    1
   155   176   174   ar
   156   176   175   ar
   157   174   172   ar
   158   158   159    1
   159    83    80    1
   160    83    84    1
   161    96    95    1
   162    96    98   ar
   163   111   112    1
   164   112   115    1
   165    95    92    1
   166   159   160    1
   167   100    98   ar
   168   175   173   ar
   169    80    81    1
   170    91    92    1
   171    91    81   am
   172    86    84   ar
   173    86    88   ar
   174    84    85   ar
   175   172   171   ar
   176    92    93    1
   177    81    82    2
   178   115   116    1
   179   173   171   ar
   180    88    89   ar
   181    85    87   ar
   182   171   170    1
   183   119   117   am
   184   160   161    2
   185    93    94    2
   186   118   117    2
   187   117   116    1
   188    89    87   ar
   189    89    90    1
   190   170   167    1
   191   220   219    1
   192   218   219   ar
   193   218   216   ar
   194   166   167    1
   195   219   217   ar
   196   167   168    1
   197   216   214   ar
   198   168   169    2
   199   217   215   ar
   200   214   215   ar
   201   214   213    1
   202   184   182   am
   203   213   210    1
   204   211   212    2
   205   211   210    1
   206   182   183    2
   207   182   181    1
   208   210   209    1
   209   181   178    1
   210   177   178    1
   211   178   179    1
   212   179   180    2
