@<TRIPOS>MOLECULE
tmp/2jatA01.pdb
 174 165 0 0 0
SMALL
GASTEIGER

@<TRIPOS>ATOM
      1  N          0.9550   21.2900   18.5350 N.3     9  VAL9       -0.1231
      2  CA         1.4750   22.3260   19.4390 C.3     9  VAL9        0.1692
      3  C          0.7370   22.3160   20.7980 C.2     9  VAL9        0.2592
      4  O         -0.5000   22.3880   20.8590 O.2     9  VAL9       -0.2718
      5  CB         1.4050   23.7390   18.7940 C.3     9  VAL9        0.0266
      6  CG1        2.0650   24.7790   19.6810 C.3     9  VAL9        0.0020
      7  CG2        2.0800   23.7310   17.4300 C.3     9  VAL9        0.0020
      8  N          1.5040   22.2020   21.8800 N.am   10  GLY10      -0.1957
      9  CA         0.9320   22.1880   23.2230 C.3    10  GLY10       0.1869
     10  C          0.3840   20.8390   23.6590 C.2    10  GLY10       0.2309
     11  O         -0.3710   20.7690   24.6460 O.2    10  GLY10      -0.2863
     12  N          4.9420   17.5910   24.2710 N.3    13  LYS13      -0.1231
     13  CA         6.1080   16.8480   23.7860 C.3    13  LYS13       0.1693
     14  C          7.3760   17.1950   24.5490 C.2    13  LYS13       0.2592
     15  O          8.0990   16.2950   24.9850 O.2    13  LYS13      -0.2718
     16  CB         6.3360   17.0890   22.2990 C.3    13  LYS13       0.0285
     17  CG         5.2910   16.4840   21.3700 C.3    13  LYS13       0.0035
     18  CD         5.3610   17.1240   19.9950 C.3    13  LYS13       0.0206
     19  CE         5.2250   18.6110   20.1430 C.3    13  LYS13       0.1093
     20  NZ         4.2880   19.1510   19.1570 N.3    13  LYS13      -0.1314
     21  N          7.6540   18.4840   24.7180 N.am   14  SER14      -0.1952
     22  CA         8.8450   18.8610   25.4660 C.3    14  SER14       0.1924
     23  C          8.7890   18.3560   26.9080 C.2    14  SER14       0.2314
     24  O          9.7840   17.8570   27.4190 O.2    14  SER14      -0.2863
     25  CB         9.1160   20.3610   25.3950 C.3    14  SER14       0.2116
     26  OG         7.9150   21.0770   25.1980 O.3    14  SER14      -0.2180
     27  N         12.9050   26.6190   19.2540 N.3    33  VAL33      -0.1245
     28  CA        12.1550   27.7570   18.7540 C.3    33  VAL33       0.1561
     29  C         12.9070   29.0900   18.9200 C.2    33  VAL33       0.2260
     30  O         12.7180   30.0210   18.1350 O.2    33  VAL33      -0.2867
     31  CB        10.8010   27.8230   19.4790 C.3    33  VAL33       0.0252
     32  CG1        9.9880   28.9590   18.9630 C.3    33  VAL33       0.0019
     33  CG2       10.0410   26.5180   19.3200 C.3    33  VAL33       0.0019
     34  N         10.5340   32.7670   13.4420 N.3    39  PHE39      -0.1241
     35  CA         9.4560   32.5220   14.3860 C.3    39  PHE39       0.1605
     36  C          8.7570   33.7820   14.8850 C.2    39  PHE39       0.2264
     37  O          7.5350   33.7910   15.0570 O.2    39  PHE39      -0.2867
     38  CB         9.9950   31.7330   15.5780 C.3    39  PHE39       0.0534
     39  CG         8.9340   31.2490   16.5040 C.ar   39  PHE39      -0.0203
     40  CD1        8.1100   30.1810   16.1470 C.ar   39  PHE39      -0.0042
     41  CD2        8.7410   31.8570   17.7390 C.ar   39  PHE39      -0.0042
     42  CE1        7.1100   29.7230   17.0080 C.ar   39  PHE39      -0.0003
     43  CE2        7.7430   31.4010   18.6110 C.ar   39  PHE39      -0.0003
     44  CZ         6.9290   30.3360   18.2430 C.ar   39  PHE39      -0.0000
     45  N          6.5950   35.1890   12.2320 N.3    42  TYR42      -0.1227
     46  CA         5.8770   34.0840   11.6070 C.3    42  TYR42       0.1736
     47  C          4.3560   34.1960   11.6810 C.2    42  TYR42       0.2595
     48  O          3.6850   34.2610   10.6430 O.2    42  TYR42      -0.2718
     49  CB         6.3620   32.7780   12.2260 C.3    42  TYR42       0.0548
     50  CG         5.6840   31.5280   11.7470 C.ar   42  TYR42      -0.0200
     51  CD1        5.7280   31.1410   10.4040 C.ar   42  TYR42      -0.0009
     52  CD2        5.0400   30.6960   12.6520 C.ar   42  TYR42      -0.0009
     53  CE1        5.1120   29.9660    9.9780 C.ar   42  TYR42       0.0417
     54  CE2        4.4320   29.5310   12.2430 C.ar   42  TYR42       0.0417
     55  CZ         4.4710   29.1660   10.9100 C.ar   42  TYR42       0.1957
     56  OH         3.8610   27.9920   10.5360 O.3    42  TYR42      -0.2866
     57  N          3.8310   34.2390   12.9050 N.am   43  TYR43      -0.1976
     58  CA         2.3900   34.2660   13.1470 C.3    43  TYR43       0.1639
     59  C          1.6990   35.5910   12.8230 C.2    43  TYR43       0.2290
     60  O          0.4950   35.6100   12.5620 O.2    43  TYR43      -0.2864
     61  CB         2.1030   33.8540   14.5860 C.3    43  TYR43       0.0560
     62  CG         2.3190   32.3780   14.8230 C.ar   43  TYR43      -0.0198
     63  CD1        3.3660   31.9260   15.6280 C.ar   43  TYR43      -0.0009
     64  CD2        1.4860   31.4280   14.2260 C.ar   43  TYR43      -0.0009
     65  CE1        3.5700   30.5620   15.8460 C.ar   43  TYR43       0.0417
     66  CE2        1.6820   30.0610   14.4380 C.ar   43  TYR43       0.0417
     67  CZ         2.7230   29.6360   15.2490 C.ar   43  TYR43       0.1957
     68  OH         2.9180   28.2830   15.4540 O.3    43  TYR43      -0.2866
     69  N          9.4960   29.7060    6.2670 N.3    53  MET53      -0.1230
     70  CA         9.5490   29.0520    7.5670 C.3    53  MET53       0.1702
     71  C          9.6080   27.5340    7.4390 C.2    53  MET53       0.2592
     72  O         10.4710   26.8940    8.0370 O.2    53  MET53      -0.2718
     73  CB         8.3410   29.4580    8.4090 C.3    53  MET53       0.0401
     74  CG         8.1250   28.5940    9.6430 C.3    53  MET53       0.0596
     75  SD         9.2270   29.0420   10.9810 S.3    53  MET53      -0.1393
     76  CE         8.1720   28.6100   12.3640 C.3    53  MET53       0.0692
     77  N          8.6900   26.9730    6.6520 N.am   54  GLN54      -0.1979
     78  CA         8.6120   25.5300    6.4370 C.3    54  GLN54       0.1601
     79  C          9.8520   24.9500    5.7690 C.2    54  GLN54       0.2287
     80  O         10.1800   23.7880    5.9690 O.2    54  GLN54      -0.2864
     81  CB         7.3700   25.1930    5.6160 C.3    54  GLN54       0.0394
     82  CG         6.0670   25.4250    6.3540 C.3    54  GLN54       0.0908
     83  CD         6.1250   24.9310    7.7910 C.2    54  GLN54       0.2608
     84  OE1        6.3600   23.7490    8.0490 O.2    54  GLN54      -0.2717
     85  NE2        5.9150   25.8410    8.7350 N.am   54  GLN54      -0.0878
     86  N         12.6030   24.7680    8.3110 N.3    57  MET57      -0.1245
     87  CA        12.3570   23.6900    9.2340 C.3    57  MET57       0.1570
     88  C         12.9120   22.3900    8.7000 C.2    57  MET57       0.2261
     89  O         13.5950   21.6770    9.4400 O.2    57  MET57      -0.2867
     90  CB        10.8730   23.6020    9.6030 C.3    57  MET57       0.0387
     91  CG        10.3880   24.8190   10.3800 C.3    57  MET57       0.0595
     92  SD        10.6030   24.7530   12.1790 S.3    57  MET57      -0.1393
     93  CE        12.3610   24.9120   12.4570 C.3    57  MET57       0.0692
     94  N         15.7400   20.2700   10.6210 N.3    61  ARG61      -0.1245
     95  CA        15.4670   18.8790   10.9340 C.3    61  ARG61       0.1563
     96  C         16.4010   17.9050   10.2130 C.2    61  ARG61       0.2260
     97  O         16.6890   16.8290   10.7380 O.2    61  ARG61      -0.2867
     98  CB        14.0130   18.5460   10.6050 C.3    61  ARG61       0.0307
     99  CG        13.4600   17.3520   11.3650 C.3    61  ARG61       0.0489
    100  CD        12.9410   17.7430   12.7380 C.3    61  ARG61       0.2205
    101  NE        11.7570   18.5850   12.5900 N.pl3  61  ARG61      -0.0865
    102  CZ        11.2620   19.3880   13.5290 C.cat  61  ARG61       0.5346
    103  NH1       11.8370   19.4750   14.7230 N.pl3  61  ARG61       0.1354
    104  NH2       10.1790   20.1120   13.2670 N.pl3  61  ARG61       0.1354
    105  N         11.8830   15.0930   19.9020 N.3    74  ASP74      -0.1225
    106  CA        10.7390   15.9570   20.1180 C.3    74  ASP74       0.1805
    107  C         10.3120   16.5540   18.7570 C.2    74  ASP74       0.2597
    108  O         10.8420   17.5990   18.3210 O.2    74  ASP74      -0.2718
    109  CB        11.0720   17.0270   21.1570 C.3    74  ASP74       0.1424
    110  CG         9.9610   18.0260   21.3420 C.2    74  ASP74       0.3668
    111  OD1        8.8810   17.8280   20.7500 O.co2  74  ASP74      -0.2456
    112  OD2       10.1620   19.0180   22.0710 O.co2  74  ASP74      -0.2456
    113  N          9.3650   15.8670   18.1040 N.am   75  ARG75      -0.1979
    114  CA         8.9090   16.1610   16.7400 C.3    75  ARG75       0.1597
    115  C          9.8360   15.4840   15.7480 C.2    75  ARG75       0.2287
    116  O         11.0410   15.4350   15.9660 O.2    75  ARG75      -0.2864
    117  CB         8.8960   17.6740   16.4650 C.3    75  ARG75       0.0334
    118  CG         8.3890   18.0670   15.0850 C.3    75  ARG75       0.0492
    119  CD         6.9090   18.3960   15.1540 C.3    75  ARG75       0.2205
    120  NE         6.7040   19.7010   15.7610 N.pl3  75  ARG75      -0.0865
    121  CZ         5.5270   20.1740   16.1400 C.cat  75  ARG75       0.5346
    122  NH1        4.4280   19.4440   15.9960 N.pl3  75  ARG75       0.1354
    123  NH2        5.4470   21.3860   16.6670 N.pl3  75  ARG75       0.1354
    124  N          6.5020   17.7450    9.8700 N.3    80  ASP80      -0.1239
    125  CA         6.7110   18.9820    9.1410 C.3    80  ASP80       0.1674
    126  C          5.7460   19.2000    7.9540 C.2    80  ASP80       0.2266
    127  O          5.0880   20.2340    7.8950 O.2    80  ASP80      -0.2867
    128  CB         8.1920   19.1250    8.7910 C.3    80  ASP80       0.1410
    129  CG         9.0440   19.3800   10.0300 C.2    80  ASP80       0.3668
    130  OD1        8.6370   20.2130   10.8610 O.co2  80  ASP80      -0.2456
    131  OD2       10.1030   18.7510   10.1970 O.co2  80  ASP80      -0.2456
    132  N          2.3020   20.6820    8.8490 N.3    83  PHE83      -0.1241
    133  CA         2.1900   22.1330    8.9650 C.3    83  PHE83       0.1605
    134  C          1.9600   22.8350    7.6350 C.2    83  PHE83       0.2264
    135  O          1.1940   23.7880    7.5660 O.2    83  PHE83      -0.2867
    136  CB         3.4250   22.7030    9.6500 C.3    83  PHE83       0.0534
    137  CG         3.4550   22.4450   11.1150 C.ar   83  PHE83      -0.0203
    138  CD1        3.8810   21.2180   11.6060 C.ar   83  PHE83      -0.0042
    139  CD2        3.0340   23.4190   12.0100 C.ar   83  PHE83      -0.0042
    140  CE1        3.9010   20.9710   12.9600 C.ar   83  PHE83      -0.0003
    141  CE2        3.0610   23.1870   13.3620 C.ar   83  PHE83      -0.0003
    142  CZ         3.4900   21.9540   13.8430 C.ar   83  PHE83      -0.0000
    143  N          4.4860   30.4030   24.3060 N.3   135  ARG135     -0.1245
    144  CA         5.1830   31.7170   24.2510 C.3   135  ARG135      0.1563
    145  C          4.2590   32.7870   23.6610 C.2   135  ARG135      0.2260
    146  O          3.1790   32.4600   23.1580 O.2   135  ARG135     -0.2867
    147  CB         6.5030   31.6490   23.4510 C.3   135  ARG135      0.0307
    148  CG         6.5130   30.6980   22.2290 C.3   135  ARG135      0.0489
    149  CD         6.9900   29.2630   22.5740 C.3   135  ARG135      0.2205
    150  NE         8.4340   29.0560   22.4060 N.pl3 135  ARG135     -0.0865
    151  CZ         9.3810   29.4310   23.2740 C.cat 135  ARG135      0.5346
    152  NH1       10.6610   29.1870   23.0070 N.pl3 135  ARG135      0.1354
    153  NH2        9.0690   30.0610   24.4040 N.pl3 135  ARG135      0.1354
    154  N          2.7940   32.4390   19.8460 N.3   138  GLU138     -0.1245
    155  CA         1.7630   31.4400   19.5780 C.3   138  GLU138      0.1567
    156  C          0.3830   31.8970   20.0420 C.2   138  GLU138      0.2260
    157  O         -0.6290   31.2770   19.7080 O.2   138  GLU138     -0.2867
    158  CB         2.1460   30.0930   20.2050 C.3   138  GLU138      0.0388
    159  CG         3.2900   29.4010   19.4820 C.3   138  GLU138      0.1160
    160  CD         3.8880   28.2220   20.2320 C.2   138  GLU138      0.3649
    161  OE1        3.2690   27.7030   21.1940 O.co2 138  GLU138     -0.2457
    162  OE2        4.9940   27.7950   19.8360 O.co2 138  GLU138     -0.2457
    163  N         -6.6990   28.0330   13.3680 N.3   145  TYR145     -0.1241
    164  CA        -5.4090   27.4540   13.0150 C.3   145  TYR145      0.1605
    165  C         -5.1030   26.2130   13.8720 C.2   145  TYR145      0.2264
    166  O         -4.6840   25.1800   13.3290 O.2   145  TYR145     -0.2867
    167  CB        -4.3020   28.5150   13.1160 C.3   145  TYR145      0.0534
    168  CG        -2.8880   28.0240   12.8190 C.ar  145  TYR145     -0.0201
    169  CD1       -2.3580   28.0590   11.5200 C.ar  145  TYR145     -0.0009
    170  CD2       -2.0680   27.5400   13.8490 C.ar  145  TYR145     -0.0009
    171  CE1       -1.0330   27.6000   11.2600 C.ar  145  TYR145      0.0417
    172  CE2       -0.7680   27.0950   13.5990 C.ar  145  TYR145      0.0417
    173  CZ        -0.2540   27.1280   12.3120 C.ar  145  TYR145      0.1957
    174  OH         1.0350   26.6870   12.1160 O.3   145  TYR145     -0.2866
@<TRIPOS>BOND
     1    81    82    1
     2    81    78    1
     3    79    80    2
     4    79    78    1
     5    69    70    1
     6    82    83    1
     7    78    77    1
     8    77    71   am
     9    71    70    1
    10    71    72    2
    11   135   134    2
    12    70    73    1
    13   134   133    1
    14    83    84    2
    15    83    85   am
    16   127   126    2
    17   126   125    1
    18    86    87    1
    19    73    74    1
    20    88    87    1
    21    88    89    2
    22   128   125    1
    23   128   129    1
    24   132   133    1
    25   133   136    1
    26   125   124    1
    27    87    90    1
    28    90    91    1
    29    74    75    1
    30   136   137    1
    31    53    51   ar
    32    53    55   ar
    33   129   131   ar
    34   129   130   ar
    35    96    97    2
    36    96    95    1
    37    91    92    1
    38    51    50   ar
    39    56    55    1
    40    98    95    1
    41    98    99    1
    42    94    95    1
    43    48    47    2
    44    55    54   ar
    45    75    76    1
    46   137   138   ar
    47   137   139   ar
    48   171   169   ar
    49   171   173   ar
    50    99   100    1
    51   169   168   ar
    52   138   140   ar
    53    46    47    1
    54    46    49    1
    55    46    45    1
    56    47    57   am
    57    50    49    1
    58    50    52   ar
    59   139   141   ar
    60   174   173    1
    61    92    93    1
    62    54    52   ar
    63   173   172   ar
    64    60    59    2
    65   101   100    1
    66   101   102    2
    67   168   167    1
    68   168   170   ar
    69    59    58    1
    70    57    58    1
    71   140   142   ar
    72   164   167    1
    73   164   163    1
    74   164   165    1
    75    58    61    1
    76   104   102    1
    77   166   165    2
    78   141   142   ar
    79    34    35    1
    80   102   103    1
    81   172   170   ar
    82    64    66   ar
    83    64    62   ar
    84    35    36    1
    85    35    38    1
    86    66    67   ar
    87    61    62    1
    88    62    63   ar
    89    36    37    2
    90   118   119    1
    91   118   117    1
    92   119   120    1
    93    67    68    1
    94    67    65   ar
    95    38    39    1
    96    63    65   ar
    97   115   116    2
    98   115   114    1
    99   120   121    2
   100   122   121    1
   101   121   123    1
   102    40    39   ar
   103    40    42   ar
   104   117   114    1
   105    39    41   ar
   106   114   113    1
   107    42    44   ar
   108     7     5    1
   109    41    43   ar
   110   113   107   am
   111    30    29    2
   112    44    43   ar
   113   108   107    2
   114     1     2    1
   115    28    29    1
   116    28    27    1
   117    28    31    1
   118   107   106    1
   119     5     2    1
   120     5     6    1
   121    32    31    1
   122    20    19    1
   123    33    31    1
   124     2     3    1
   125   159   158    1
   126   159   160    1
   127   155   154    1
   128   155   156    1
   129   155   158    1
   130   157   156    2
   131   162   160   ar
   132   105   106    1
   133    18    19    1
   134    18    17    1
   135   106   109    1
   136   160   161   ar
   137   111   110   ar
   138     3     4    2
   139     3     8   am
   140   109   110    1
   141   110   112   ar
   142    17    16    1
   143     8     9    1
   144   148   149    1
   145   148   147    1
   146    16    13    1
   147   150   149    1
   148   150   151    2
   149   152   151    1
   150   146   145    2
   151     9    10    1
   152   151   153    1
   153   147   144    1
   154    10    11    2
   155   145   144    1
   156    13    12    1
   157    13    14    1
   158   144   143    1
   159    14    21   am
   160    14    15    2
   161    21    22    1
   162    26    25    1
   163    25    22    1
   164    22    23    1
   165    23    24    2
