@<TRIPOS>MOLECULE
tmp/2jatA00.pdb
 92 87 0 0 0
SMALL
GASTEIGER

@<TRIPOS>ATOM
      1  N          0.4990   17.6220   18.1160 N.3     8  THR8       -0.1203
      2  CA         0.3390   19.0350   17.8020 C.3     8  THR8        0.1994
      3  C          1.0230   19.9820   18.8120 C.2     8  THR8        0.2618
      4  O          1.6130   19.5200   19.8070 O.2     8  THR8       -0.2717
      5  CB        -1.1460   19.4000   17.6410 C.3     8  THR8        0.1784
      6  OG1       -1.2460   20.6580   16.9610 O.3     8  THR8       -0.2211
      7  CG2       -1.8710   19.4790   19.0140 C.3     8  THR8        0.0376
      8  N          0.9550   21.2900   18.5350 N.am    9  VAL9       -0.1965
      9  CA         1.4750   22.3260   19.4390 C.3     9  VAL9        0.1727
     10  C          0.7370   22.3160   20.7980 C.2     9  VAL9        0.2617
     11  O         -0.5000   22.3880   20.8590 O.2     9  VAL9       -0.2715
     12  CB         1.4050   23.7390   18.7940 C.3     9  VAL9        0.0290
     13  CG1        2.0650   24.7790   19.6810 C.3     9  VAL9        0.0023
     14  CG2        2.0800   23.7310   17.4300 C.3     9  VAL9        0.0023
     15  N          1.5040   22.2020   21.8800 N.am   10  GLY10      -0.1940
     16  CA         0.9320   22.1880   23.2230 C.3    10  GLY10       0.2014
     17  C          0.3840   20.8390   23.6590 C.2    10  GLY10       0.2639
     18  O         -0.3710   20.7690   24.6460 O.2    10  GLY10      -0.2714
     19  N          0.7430   19.7710   22.9340 N.am   11  ALA11      -0.1963
     20  CA         0.4020   18.3990   23.3640 C.3    11  ALA11       0.1728
     21  C          1.2040   18.0140   24.6000 C.2    11  ALA11       0.2617
     22  O          0.7130   17.2960   25.4730 O.2    11  ALA11      -0.2715
     23  CB         0.5980   17.3640   22.2300 C.3    11  ALA11       0.0334
     24  N          2.4300   18.5170   24.6810 N.am   12  GLY12      -0.1940
     25  CA         3.2650   18.2940   25.8460 C.3    12  GLY12       0.2014
     26  C          4.4440   17.4260   25.4920 C.2    12  GLY12       0.2639
     27  O          4.8900   16.6250   26.3090 O.2    12  GLY12      -0.2714
     28  N          4.9420   17.5910   24.2710 N.am   13  LYS13      -0.1963
     29  CA         6.1080   16.8480   23.7860 C.3    13  LYS13       0.1728
     30  C          7.3760   17.1950   24.5490 C.2    13  LYS13       0.2617
     31  O          8.0990   16.2950   24.9850 O.2    13  LYS13      -0.2715
     32  CB         6.3360   17.0890   22.2990 C.3    13  LYS13       0.0311
     33  CG         5.2910   16.4840   21.3700 C.3    13  LYS13       0.0038
     34  CD         5.3610   17.1240   19.9950 C.3    13  LYS13       0.0206
     35  CE         5.2250   18.6110   20.1430 C.3    13  LYS13       0.1093
     36  NZ         4.2880   19.1510   19.1570 N.3    13  LYS13      -0.1314
     37  N          7.6540   18.4840   24.7180 N.am   14  SER14      -0.1936
     38  CA         8.8450   18.8610   25.4660 C.3    14  SER14       0.2055
     39  C          8.7890   18.3560   26.9080 C.2    14  SER14       0.2643
     40  O          9.7840   17.8570   27.4190 O.2    14  SER14      -0.2714
     41  CB         9.1160   20.3610   25.3950 C.3    14  SER14       0.2130
     42  OG         7.9150   21.0770   25.1980 O.3    14  SER14      -0.2179
     43  N          7.6200   18.4500   27.5400 N.am   15  THR15      -0.1950
     44  CA         7.4140   17.9410   28.9000 C.3    15  THR15       0.1897
     45  C          7.6080   16.4360   28.9780 C.2    15  THR15       0.2313
     46  O          8.3960   15.9570   29.8010 O.2    15  THR15      -0.2863
     47  CB         6.0080   18.2740   29.4480 C.3    15  THR15       0.1794
     48  OG1        5.8130   19.6930   29.4180 O.3    15  THR15      -0.2208
     49  CG2        5.8540   17.7660   30.8930 C.3    15  THR15       0.0378
     50  N         11.8830   15.0930   19.9020 N.3    74  ASP74      -0.1239
     51  CA        10.7390   15.9570   20.1180 C.3    74  ASP74       0.1674
     52  C         10.3120   16.5540   18.7570 C.2    74  ASP74       0.2266
     53  O         10.8420   17.5990   18.3210 O.2    74  ASP74      -0.2867
     54  CB        11.0720   17.0270   21.1570 C.3    74  ASP74       0.1410
     55  CG         9.9610   18.0260   21.3420 C.2    74  ASP74       0.3668
     56  OD1        8.8810   17.8280   20.7500 O.co2  74  ASP74      -0.2456
     57  OD2       10.1620   19.0180   22.0710 O.co2  74  ASP74      -0.2456
     58  N         -2.8250   24.8390   27.1380 N.3   129  ARG129     -0.1245
     59  CA        -1.4090   24.5280   27.3510 C.3   129  ARG129      0.1563
     60  C         -0.4480   25.4620   26.6050 C.2   129  ARG129      0.2260
     61  O          0.6740   25.6760   27.0610 O.2   129  ARG129     -0.2867
     62  CB        -1.1070   23.0730   27.0080 C.3   129  ARG129      0.0307
     63  CG        -1.3890   22.1440   28.1520 C.3   129  ARG129      0.0489
     64  CD        -1.0400   20.7010   27.8130 C.3   129  ARG129      0.2205
     65  NE        -1.6880   19.7890   28.7510 N.pl3 129  ARG129     -0.0865
     66  CZ        -1.8720   18.4880   28.5440 C.cat 129  ARG129      0.5346
     67  NH1       -1.4560   17.9320   27.4190 N.pl3 129  ARG129      0.1354
     68  NH2       -2.4830   17.7470   29.4560 N.pl3 129  ARG129      0.1354
     69  N          1.9780   27.6910   28.6760 N.3   133  ARG133     -0.1231
     70  CA         3.3020   27.0720   28.5910 C.3   133  ARG133      0.1694
     71  C          4.0470   27.2550   27.2610 C.2   133  ARG133      0.2592
     72  O          5.2060   26.8600   27.1530 O.2   133  ARG133     -0.2718
     73  CB         3.1770   25.5820   28.9150 C.3   133  ARG133      0.0321
     74  CG         4.2620   25.0150   29.7910 C.3   133  ARG133      0.0489
     75  CD         4.1550   23.5130   29.7540 C.3   133  ARG133      0.2205
     76  NE         2.8720   23.0390   30.2790 N.pl3 133  ARG133     -0.0865
     77  CZ         2.1900   22.0100   29.7740 C.cat 133  ARG133      0.5346
     78  NH1        2.6580   21.3500   28.7190 N.pl3 133  ARG133      0.1354
     79  NH2        1.0380   21.6380   30.3310 N.pl3 133  ARG133      0.1354
     80  N          3.3910   27.8420   26.2590 N.am  134  GLY134     -0.1957
     81  CA         4.0200   28.0980   24.9510 C.3   134  GLY134      0.1869
     82  C          4.9160   29.3300   24.9890 C.2   134  GLY134      0.2309
     83  O          5.9790   29.3010   25.6220 O.2   134  GLY134     -0.2863
     84  N          2.7940   32.4390   19.8460 N.3   138  GLU138     -0.1245
     85  CA         1.7630   31.4400   19.5780 C.3   138  GLU138      0.1567
     86  C          0.3830   31.8970   20.0420 C.2   138  GLU138      0.2260
     87  O         -0.6290   31.2770   19.7080 O.2   138  GLU138     -0.2867
     88  CB         2.1460   30.0930   20.2050 C.3   138  GLU138      0.0388
     89  CG         3.2900   29.4010   19.4820 C.3   138  GLU138      0.1160
     90  CD         3.8880   28.2220   20.2320 C.2   138  GLU138      0.3649
     91  OE1        3.2690   27.7030   21.1940 O.co2 138  GLU138     -0.2457
     92  OE2        4.9940   27.7950   19.8360 O.co2 138  GLU138     -0.2457
@<TRIPOS>BOND
     1     6     5    1
     2    14    12    1
     3     5     2    1
     4     5     7    1
     5     2     1    1
     6     2     3    1
     7    53    52    2
     8     8     3   am
     9     8     9    1
    10    52    51    1
    11    12     9    1
    12    12    13    1
    13     3     4    2
    14    36    35    1
    15     9    10    1
    16    89    88    1
    17    89    90    1
    18    85    84    1
    19    85    86    1
    20    85    88    1
    21    87    86    2
    22    92    90   ar
    23    50    51    1
    24    34    35    1
    25    34    33    1
    26    51    54    1
    27    90    91   ar
    28    56    55   ar
    29    10    11    2
    30    10    15   am
    31    54    55    1
    32    55    57   ar
    33    33    32    1
    34    15    16    1
    35    23    20    1
    36    32    29    1
    37    19    20    1
    38    19    17   am
    39    16    17    1
    40    20    21    1
    41    17    18    2
    42    29    28    1
    43    29    30    1
    44    28    26   am
    45    30    37   am
    46    30    31    2
    47    21    24   am
    48    21    22    2
    49    24    25    1
    50    37    38    1
    51    81    82    1
    52    81    80    1
    53    82    83    2
    54    42    41    1
    55    41    38    1
    56    38    39    1
    57    26    25    1
    58    26    27    2
    59    80    71   am
    60    60    61    2
    61    60    59    1
    62    39    40    2
    63    39    43   am
    64    62    59    1
    65    62    63    1
    66    58    59    1
    67    72    71    2
    68    71    70    1
    69    67    66    1
    70    43    44    1
    71    64    63    1
    72    64    65    1
    73    66    65    2
    74    66    68    1
    75    70    69    1
    76    70    73    1
    77    78    77    1
    78    44    45    1
    79    44    47    1
    80    73    74    1
    81    45    46    2
    82    48    47    1
    83    47    49    1
    84    75    74    1
    85    75    76    1
    86    77    76    2
    87    77    79    1
