@<TRIPOS>MOLECULE
tmp/2jauA00.pdb
 206 201 0 0 0
SMALL
GASTEIGER

@<TRIPOS>ATOM
      1  N         21.7080   39.3860   34.8820 N.3     8  ASN8       -0.1240
      2  CA        20.6460   39.8580   33.9970 C.3     8  ASN8        0.1653
      3  C         19.6250   40.7460   34.7240 C.2     8  ASN8        0.2266
      4  O         19.4940   40.6680   35.9540 O.2     8  ASN8       -0.2867
      5  CB        19.9970   38.6150   33.3880 C.3     8  ASN8        0.1155
      6  CG        18.9290   38.9450   32.3660 C.2     8  ASN8        0.2627
      7  OD1       17.8190   38.4270   32.4570 O.2     8  ASN8       -0.2716
      8  ND2       19.2670   39.7560   31.3650 N.am    8  ASN8       -0.0877
      9  N         15.8820   41.9030   33.4700 N.3    10  ASP10      -0.1239
     10  CA        14.4970   41.4550   33.4250 C.3    10  ASP10       0.1674
     11  C         14.3950   39.9850   33.7910 C.2    10  ASP10       0.2266
     12  O         15.1130   39.1480   33.2310 O.2    10  ASP10      -0.2867
     13  CB        13.9280   41.7020   32.0420 C.3    10  ASP10       0.1410
     14  CG        13.7530   43.1840   31.7650 C.2    10  ASP10       0.3668
     15  OD1       13.1250   43.8810   32.6050 O.co2  10  ASP10      -0.2456
     16  OD2       14.2960   43.6340   30.7510 O.co2  10  ASP10      -0.2456
     17  N          9.6080   41.6050   35.4950 N.3    16  PHE16      -0.1227
     18  CA         8.9950   41.8250   34.1840 C.3    16  PHE16       0.1736
     19  C          7.6800   41.0310   34.0750 C.2    16  PHE16       0.2595
     20  O          6.6530   41.5900   33.6790 O.2    16  PHE16      -0.2718
     21  CB         9.9740   41.3380   33.0920 C.3    16  PHE16       0.0547
     22  CG         9.4880   41.5620   31.6860 C.ar   16  PHE16      -0.0202
     23  CD1        8.5800   40.6660   31.0750 C.ar   16  PHE16      -0.0042
     24  CD2        9.9240   42.7000   30.9680 C.ar   16  PHE16      -0.0042
     25  CE1        8.1190   40.9000   29.7710 C.ar   16  PHE16      -0.0003
     26  CE2        9.4500   42.9490   29.6660 C.ar   16  PHE16      -0.0003
     27  CZ         8.5700   42.0500   29.0650 C.ar   16  PHE16      -0.0000
     28  N          7.7130   39.7460   34.4300 N.am   17  GLU17      -0.1979
     29  CA         6.5100   38.8840   34.2740 C.3    17  GLU17       0.1602
     30  C          5.2850   39.4010   35.0350 C.2    17  GLU17       0.2287
     31  O          4.1600   39.4910   34.4720 O.2    17  GLU17      -0.2864
     32  CB         6.8310   37.4120   34.6330 C.3    17  GLU17       0.0415
     33  CG         7.8030   36.7320   33.6590 C.3    17  GLU17       0.1163
     34  CD         7.1940   36.2870   32.3440 C.2    17  GLU17       0.3649
     35  OE1        5.9350   36.2790   32.2020 O.co2  17  GLU17      -0.2457
     36  OE2        7.9780   35.8960   31.4600 O.co2  17  GLU17      -0.2457
     37  N          2.6400   30.2250   32.3450 N.3    39  ARG39      -0.1245
     38  CA         3.6280   30.7300   31.4050 C.3    39  ARG39       0.1563
     39  C          4.5840   29.6130   30.9920 C.2    39  ARG39       0.2260
     40  O          5.0760   28.8480   31.8330 O.2    39  ARG39      -0.2867
     41  CB         4.3970   31.9250   31.9940 C.3    39  ARG39       0.0307
     42  CG         3.6540   33.2650   31.9040 C.3    39  ARG39       0.0489
     43  CD         3.7400   33.9220   30.4990 C.3    39  ARG39       0.2205
     44  NE         5.1150   34.3220   30.2610 N.pl3  39  ARG39      -0.0865
     45  CZ         5.9510   33.7480   29.4200 C.cat  39  ARG39       0.5346
     46  NH1        5.5640   32.7490   28.6200 N.pl3  39  ARG39       0.1354
     47  NH2        7.2150   34.1940   29.3800 N.pl3  39  ARG39       0.1354
     48  N         10.2200   31.3820   26.5600 N.3    42  PHE42      -0.1227
     49  CA        10.7590   32.6930   26.9070 C.3    42  PHE42       0.1736
     50  C          9.8360   33.8400   26.5020 C.2    42  PHE42       0.2595
     51  O          9.5630   34.7230   27.3010 O.2    42  PHE42      -0.2718
     52  CB        12.1450   32.8860   26.2910 C.3    42  PHE42       0.0547
     53  CG        12.8600   34.1320   26.7770 C.ar   42  PHE42      -0.0202
     54  CD1       13.3220   34.2290   28.1010 C.ar   42  PHE42      -0.0042
     55  CD2       13.0910   35.1940   25.9070 C.ar   42  PHE42      -0.0042
     56  CE1       13.9750   35.3740   28.5400 C.ar   42  PHE42      -0.0003
     57  CE2       13.7520   36.3570   26.3380 C.ar   42  PHE42      -0.0003
     58  CZ        14.2030   36.4450   27.6500 C.ar   42  PHE42      -0.0000
     59  N          9.3660   33.8130   25.2530 N.am   43  TRP43      -0.1962
     60  CA         8.6610   34.9580   24.6630 C.3    43  TRP43       0.1771
     61  C          7.2040   35.0690   25.1080 C.2    43  TRP43       0.2619
     62  O          6.3660   34.2480   24.7240 O.2    43  TRP43      -0.2715
     63  CB         8.7860   34.9270   23.1410 C.3    43  TRP43       0.0590
     64  CG        10.1930   34.8590   22.6690 C.ar   43  TRP43       0.0006
     65  CD1       10.8040   33.8070   22.0490 C.ar   43  TRP43       0.0946
     66  CD2       11.1820   35.8800   22.7930 C.ar   43  TRP43       0.0152
     67  NE1       12.1140   34.1150   21.7740 N.ar   43  TRP43      -0.2442
     68  CE2       12.3730   35.3830   22.2160 C.ar   43  TRP43       0.0810
     69  CE3       11.1800   37.1670   23.3420 C.ar   43  TRP43       0.0012
     70  CZ2       13.5540   36.1270   22.1740 C.ar   43  TRP43       0.0191
     71  CZ3       12.3510   37.9140   23.3000 C.ar   43  TRP43       0.0001
     72  CH2       13.5210   37.3910   22.7100 C.ar   43  TRP43       0.0015
     73  N          6.9070   36.0810   25.9260 N.am   44  VAL44      -0.1963
     74  CA         5.5230   36.3770   26.3310 C.3    44  VAL44       0.1727
     75  C          4.6200   36.5610   25.0860 C.2    44  VAL44       0.2616
     76  O          3.5250   35.9570   24.9770 O.2    44  VAL44      -0.2715
     77  CB         5.4710   37.6440   27.2720 C.3    44  VAL44       0.0290
     78  CG1        4.0380   38.1420   27.4920 C.3    44  VAL44       0.0023
     79  CG2        6.1210   37.3220   28.6300 C.3    44  VAL44       0.0023
     80  N          5.0880   37.3730   24.1360 N.am   45  SER45      -0.1950
     81  CA         4.2520   37.7420   22.9980 C.3    45  SER45       0.1924
     82  C          3.8430   36.4980   22.1910 C.2    45  SER45       0.2314
     83  O          2.7140   36.4220   21.7210 O.2    45  SER45      -0.2863
     84  CB         4.9390   38.7590   22.0970 C.3    45  SER45       0.2116
     85  OG         6.0330   38.1590   21.4410 O.3    45  SER45      -0.2180
     86  N          2.8470   43.3040   23.2680 N.3    60  ILE60      -0.1245
     87  CA         4.0000   44.1550   22.9160 C.3    60  ILE60       0.1561
     88  C          3.7540   45.5950   23.3390 C.2    60  ILE60       0.2260
     89  O          4.6590   46.2550   23.9170 O.2    60  ILE60      -0.2867
     90  CB         4.3680   44.0010   21.4210 C.3    60  ILE60       0.0252
     91  CG1        5.0420   42.6530   21.1810 C.3    60  ILE60       0.0019
     92  CG2        5.3120   45.1080   20.9250 C.3    60  ILE60       0.0019
     93  CD1        4.9660   42.1980   19.7220 C.3    60  ILE60       0.0001
     94  N          4.8880   46.5970   27.0790 N.3    63  TRP63      -0.1241
     95  CA         6.3090   46.9290   27.3710 C.3    63  TRP63       0.1605
     96  C          6.9230   48.0170   26.5180 C.2    63  TRP63       0.2264
     97  O          7.9890   48.5680   26.8600 O.2    63  TRP63      -0.2867
     98  CB         7.1970   45.7020   27.3670 C.3    63  TRP63       0.0550
     99  CG         7.2230   44.8200   26.1790 C.ar   63  TRP63       0.0003
    100  CD1        7.9220   44.9980   25.0260 C.ar   63  TRP63       0.0946
    101  CD2        6.6050   43.5330   26.0900 C.ar   63  TRP63       0.0152
    102  NE1        7.7510   43.8960   24.1960 N.ar   63  TRP63      -0.2442
    103  CE2        6.9510   42.9850   24.8380 C.ar   63  TRP63       0.0810
    104  CE3        5.7790   42.7950   26.9490 C.ar   63  TRP63       0.0012
    105  CZ2        6.4970   41.7180   24.4140 C.ar   63  TRP63       0.0191
    106  CZ3        5.3140   41.5200   26.5110 C.ar   63  TRP63       0.0001
    107  CH2        5.6840   41.0120   25.2750 C.ar   63  TRP63       0.0015
    108  N          9.2200   49.8830   32.0270 N.3    69  PHE69      -0.1241
    109  CA        10.4720   49.3800   32.6250 C.3    69  PHE69       0.1605
    110  C         10.7790   50.0570   33.9230 C.2    69  PHE69       0.2264
    111  O         11.2020   49.4020   34.9070 O.2    69  PHE69      -0.2867
    112  CB        11.6660   49.4250   31.6400 C.3    69  PHE69       0.0534
    113  CG        11.5740   48.3910   30.5890 C.ar   69  PHE69      -0.0203
    114  CD1       11.9560   47.0790   30.8550 C.ar   69  PHE69      -0.0042
    115  CD2       10.9730   48.6800   29.3410 C.ar   69  PHE69      -0.0042
    116  CE1       11.8280   46.0760   29.8720 C.ar   69  PHE69      -0.0003
    117  CE2       10.8420   47.6830   28.3720 C.ar   69  PHE69      -0.0003
    118  CZ        11.2630   46.3750   28.6460 C.ar   69  PHE69      -0.0000
    119  N         21.9350   43.4820   30.2810 N.3    97  THR97      -0.1203
    120  CA        20.5200   43.4960   29.9370 C.3    97  THR97       0.1994
    121  C         20.3480   43.7610   28.4560 C.2    97  THR97       0.2619
    122  O         21.1630   44.4870   27.8570 O.2    97  THR97      -0.2717
    123  CB        19.7470   44.5680   30.7910 C.3    97  THR97       0.1784
    124  OG1       18.3630   44.6580   30.3890 O.3    97  THR97      -0.2211
    125  CG2       20.4200   45.9210   30.6880 C.3    97  THR97       0.0376
    126  N         19.3140   43.1530   27.8680 N.am   98  SER98      -0.1938
    127  CA        19.0370   43.3050   26.4300 C.3    98  SER98       0.2040
    128  C         17.7950   44.1610   26.2110 C.2    98  SER98       0.2485
    129  O         16.6900   43.7470   26.5870 O.2    98  SER98      -0.2729
    130  CB        18.8480   41.9340   25.7580 C.3    98  SER98       0.2129
    131  OG        20.0650   41.1730   25.7590 O.3    98  SER98      -0.2179
    132  N         17.9520   45.3590   25.6230 N.am   99  PRO99      -0.2715
    133  CA        16.8030   46.2400   25.4080 C.3    99  PRO99       0.1536
    134  C         15.8280   45.6640   24.3750 C.2    99  PRO99       0.2598
    135  O         16.2460   44.8890   23.5000 O.2    99  PRO99      -0.2715
    136  CB        17.4370   47.5080   24.8280 C.3    99  PRO99       0.0310
    137  CG        18.9100   47.4320   25.2940 C.3    99  PRO99       0.0237
    138  CD        19.2090   45.9640   25.1590 C.3    99  PRO99       0.0939
    139  N         14.5580   46.0580   24.4670 N.am  100  ILE100     -0.1964
    140  CA        13.5670   45.7070   23.4250 C.3   100  ILE100      0.1727
    141  C         13.8670   46.4410   22.1090 C.2   100  ILE100      0.2616
    142  O         14.7230   47.3240   22.0660 O.2   100  ILE100     -0.2715
    143  CB        12.1170   46.0080   23.9010 C.3   100  ILE100      0.0290
    144  CG1       11.9460   47.4960   24.2670 C.3   100  ILE100      0.0022
    145  CG2       11.7960   45.1470   25.0860 C.3   100  ILE100      0.0023
    146  CD1       10.4470   47.9510   24.4870 C.3   100  ILE100      0.0001
    147  N         13.1630   46.0660   21.0310 N.am  101  LYS101     -0.1977
    148  CA        13.4010   46.6780   19.7320 C.3   101  LYS101      0.1596
    149  C         13.0890   48.1740   19.6910 C.2   101  LYS101      0.2287
    150  O         13.8850   48.9440   19.1510 O.2   101  LYS101     -0.2864
    151  CB        12.6340   45.9190   18.6370 C.3   101  LYS101      0.0298
    152  CG        13.1910   44.4880   18.3920 C.3   101  LYS101      0.0038
    153  CD        12.1380   43.6240   17.6460 C.3   101  LYS101      0.0206
    154  CE        12.7710   42.4350   16.9290 C.3   101  LYS101      0.1093
    155  NZ        12.0040   42.1740   15.6410 N.3   101  LYS101     -0.1314
    156  N         13.1110   52.4130   26.8060 N.3   106  CYS106     -0.1235
    157  CA        13.6470   51.2370   27.5070 C.3   106  CYS106      0.1677
    158  C         15.0950   51.4610   28.0100 C.2   106  CYS106      0.2270
    159  O         15.3510   51.3230   29.2180 O.2   106  CYS106     -0.2867
    160  CB        13.5110   49.9710   26.6270 C.3   106  CYS106      0.0956
    161  SG        14.4270   48.4830   27.2000 S.3   106  CYS106     -0.0801
    162  N         15.8760   51.8210   32.0720 N.3   110  LYS110     -0.1245
    163  CA        16.7610   50.8070   32.7030 C.3   110  LYS110      0.1561
    164  C         17.8600   51.5000   33.5140 C.2   110  LYS110      0.2260
    165  O         18.1230   51.1210   34.6670 O.2   110  LYS110     -0.2867
    166  CB        17.3510   49.8540   31.6560 C.3   110  LYS110      0.0271
    167  CG        16.2880   48.8130   31.1840 C.3   110  LYS110      0.0035
    168  CD        16.8340   47.9250   30.0790 C.3   110  LYS110      0.0206
    169  CE        15.8250   46.7780   29.7990 C.3   110  LYS110      0.1093
    170  NZ        15.8440   45.7870   30.9670 N.3   110  LYS110     -0.1314
    171  N         24.8010   38.5970   24.5480 N.3   132  LYS132     -0.1245
    172  CA        25.5470   38.4250   25.8060 C.3   132  LYS132      0.1561
    173  C         26.8040   37.5760   25.6410 C.2   132  LYS132      0.2260
    174  O         27.6740   37.5910   26.4980 O.2   132  LYS132     -0.2867
    175  CB        24.6460   37.7960   26.8930 C.3   132  LYS132      0.0271
    176  CG        23.3420   38.6250   27.1320 C.3   132  LYS132      0.0035
    177  CD        22.3220   37.7850   27.9130 C.3   132  LYS132      0.0206
    178  CE        20.9100   38.5000   27.9890 C.3   132  LYS132      0.1093
    179  NZ        19.8310   37.4150   28.0180 N.3   132  LYS132     -0.1314
    180  N         20.9850   34.3850   34.5560 N.3   142  ASP142     -0.1225
    181  CA        20.0600   34.8460   33.5160 C.3   142  ASP142      0.1805
    182  C         18.8970   33.8540   33.4020 C.2   142  ASP142      0.2598
    183  O         19.1130   32.6410   33.3860 O.2   142  ASP142     -0.2718
    184  CB        20.8380   34.9950   32.1650 C.3   142  ASP142      0.1424
    185  CG        20.0470   35.7580   31.1110 C.2   142  ASP142      0.3668
    186  OD1       18.8440   35.4490   30.8940 O.co2 142  ASP142     -0.2456
    187  OD2       20.6220   36.6830   30.5140 O.co2 142  ASP142     -0.2456
    188  N         17.6760   34.3620   33.3230 N.am  143  ASP143     -0.1960
    189  CA        16.4740   33.4870   33.2770 C.3   143  ASP143      0.1840
    190  C         16.1730   32.9230   31.8810 C.2   143  ASP143      0.2621
    191  O         15.3010   32.0730   31.7320 O.2   143  ASP143     -0.2715
    192  CB        15.2430   34.2400   33.7890 C.3   143  ASP143      0.1450
    193  CG        14.8880   35.4420   32.9190 C.2   143  ASP143      0.3671
    194  OD1       15.7540   36.3040   32.7120 O.co2 143  ASP143     -0.2456
    195  OD2       13.7440   35.4980   32.4300 O.co2 143  ASP143     -0.2456
    196  N         16.8790   33.3790   30.8460 N.am  144  ARG144     -0.1977
    197  CA        16.6350   32.8440   29.4900 C.3   144  ARG144      0.1597
    198  C         17.3740   31.5220   29.2650 C.2   144  ARG144      0.2287
    199  O         18.5960   31.4840   29.4050 O.2   144  ARG144     -0.2864
    200  CB        17.0690   33.8690   28.4270 C.3   144  ARG144      0.0334
    201  CG        16.8450   33.3360   26.9980 C.3   144  ARG144      0.0492
    202  CD        16.8800   34.4990   26.0180 C.3   144  ARG144      0.2205
    203  NE        16.6710   33.9990   24.6550 N.pl3 144  ARG144     -0.0865
    204  CZ        16.6390   34.7710   23.5780 C.cat 144  ARG144      0.5346
    205  NH1       16.7720   36.0920   23.6880 N.pl3 144  ARG144      0.1354
    206  NH2       16.4630   34.2140   22.3840 N.pl3 144  ARG144      0.1354
@<TRIPOS>BOND
     1   155   154    1
     2   154   153    1
     3   153   152    1
     4   152   151    1
     5   151   148    1
     6   150   149    2
     7   149   148    1
     8    93    91    1
     9   148   147    1
    10    92    90    1
    11   147   141   am
    12    91    90    1
    13    90    87    1
    14    85    84    1
    15    83    82    2
    16    67    65   ar
    17    67    68   ar
    18    65    64   ar
    19   142   141    2
    20    84    81    1
    21   141   140    1
    22    70    68   ar
    23    70    72   ar
    24    82    81    1
    25    68    66   ar
    26   206   204    1
    27    64    66   ar
    28    64    63    1
    29    72    71   ar
    30    66    69   ar
    31    87    86    1
    32    87    88    1
    33    81    80    1
    34    63    60    1
    35    71    69   ar
    36    88    89    2
    37   140   143    1
    38   140   139    1
    39   135   134    2
    40   204   205    1
    41   204   203    2
    42   143   144    1
    43   143   145    1
    44    80    75   am
    45   102   103   ar
    46   102   100   ar
    47   144   146    1
    48   134   139   am
    49   134   133    1
    50   105   103   ar
    51   105   107   ar
    52   171   172    1
    53   203   202    1
    54    60    61    1
    55    60    59    1
    56    62    61    2
    57   136   137    1
    58   136   133    1
    59   103   101   ar
    60    76    75    2
    61   100    99   ar
    62    75    74    1
    63    61    73   am
    64   138   137    1
    65   138   132    1
    66    59    50   am
    67   107   106   ar
    68   133   132    1
    69   132   128   am
    70   173   172    1
    71   173   174    2
    72   130   131    1
    73   130   127    1
    74   172   175    1
    75    55    57   ar
    76    55    53   ar
    77    73    74    1
    78   202   201    1
    79   101    99   ar
    80   101   104   ar
    81    99    98    1
    82   128   127    1
    83   128   129    2
    84    52    53    1
    85    52    49    1
    86    74    77    1
    87    57    58   ar
    88   127   126    1
    89    50    49    1
    90    50    51    2
    91   106   104   ar
    92    96    97    2
    93    96    95    1
    94    48    49    1
    95   160   161    1
    96   160   157    1
    97    53    54   ar
    98   156   157    1
    99   175   176    1
   100   201   200    1
   101    94    95    1
   102   176   177    1
   103    77    78    1
   104    77    79    1
   105    98    95    1
   106   157   158    1
   107    58    56   ar
   108   122   121    2
   109   126   121   am
   110   177   178    1
   111   178   179    1
   112   158   159    2
   113    54    56   ar
   114   117   118   ar
   115   117   115   ar
   116   200   197    1
   117   121   120    1
   118    46    45    1
   119   118   116   ar
   120    27    26   ar
   121    27    25   ar
   122   198   199    2
   123   198   197    1
   124   115   113   ar
   125    47    45    1
   126    45    44    2
   127   197   196    1
   128    26    24   ar
   129    25    23   ar
   130   169   168    1
   131   169   170    1
   132   116   114   ar
   133   120   119    1
   134   120   123    1
   135   168   167    1
   136    44    43    1
   137   124   123    1
   138    43    42    1
   139   187   185   ar
   140   113   114   ar
   141   113   112    1
   142   125   123    1
   143    16    14   ar
   144   196   190   am
   145   186   185   ar
   146    24    22   ar
   147    39    38    1
   148    39    40    2
   149    23    22   ar
   150   185   184    1
   151   167   166    1
   152     8     6   am
   153    38    41    1
   154    38    37    1
   155    36    34   ar
   156   112   109    1
   157   166   163    1
   158    22    21    1
   159   191   190    2
   160    14    13    1
   161    14    15   ar
   162   190   189    1
   163    42    41    1
   164   108   109    1
   165    13    10    1
   166   162   163    1
   167   184   181    1
   168    35    34   ar
   169    34    33    1
   170     6     7    2
   171     6     5    1
   172   195   193   ar
   173   109   110    1
   174   163   164    1
   175   194   193   ar
   176   193   192    1
   177    21    18    1
   178    12    11    2
   179   189   188    1
   180   189   192    1
   181   188   182   am
   182   183   182    2
   183     5     2    1
   184   182   181    1
   185    10     9    1
   186    10    11    1
   187   164   165    2
   188   181   180    1
   189    33    32    1
   190    20    19    2
   191   110   111    2
   192     2     3    1
   193     2     1    1
   194    19    18    1
   195    19    28   am
   196    18    17    1
   197    29    28    1
   198    29    32    1
   199    29    30    1
   200    31    30    2
   201     3     4    2
