@<TRIPOS>MOLECULE
tmp/2javA00.pdb
 159 149 0 0 0
SMALL
GASTEIGER

@<TRIPOS>ATOM
      1  N        -14.5070    4.3340   18.0970 N.3    10  TYR10      -0.1241
      2  CA       -14.8250    5.7390   17.8360 C.3    10  TYR10       0.1605
      3  C        -13.7790    6.5030   17.0380 C.2    10  TYR10       0.2264
      4  O        -12.6460    6.0540   16.8720 O.2    10  TYR10      -0.2867
      5  CB       -15.1100    6.4920   19.1310 C.3    10  TYR10       0.0534
      6  CG       -14.0420    6.3920   20.1910 C.ar   10  TYR10      -0.0201
      7  CD1      -12.9750    7.2950   20.2190 C.ar   10  TYR10      -0.0009
      8  CD2      -14.1100    5.4130   21.1840 C.ar   10  TYR10      -0.0009
      9  CE1      -11.9970    7.2220   21.1980 C.ar   10  TYR10       0.0417
     10  CE2      -13.1370    5.3300   22.1740 C.ar   10  TYR10       0.0417
     11  CZ       -12.0840    6.2400   22.1740 C.ar   10  TYR10       0.1957
     12  OH       -11.1140    6.1640   23.1480 O.3    10  TYR10      -0.2866
     13  N        -11.2220    9.4180   16.7900 N.3    12  ILE12      -0.1245
     14  CA       -10.3400   10.1980   17.6710 C.3    12  ILE12       0.1561
     15  C        -10.1190   11.6050   17.1160 C.2    12  ILE12       0.2260
     16  O        -10.1580   12.5870   17.8540 O.2    12  ILE12      -0.2867
     17  CB        -8.9780    9.4840   17.8530 C.3    12  ILE12       0.0252
     18  CG1       -9.1390    8.2510   18.7470 C.3    12  ILE12       0.0019
     19  CG2       -7.9090   10.4260   18.4140 C.3    12  ILE12       0.0019
     20  CD1       -7.9350    7.3310   18.7350 C.3    12  ILE12       0.0001
     21  N         -8.8540    9.5040   11.9700 N.3    20  CYS20      -0.1235
     22  CA        -8.1900    8.6350   12.9470 C.3    20  CYS20       0.1677
     23  C         -9.2300    8.0230   13.8850 C.2    20  CYS20       0.2270
     24  O         -9.9980    8.7400   14.5280 O.2    20  CYS20      -0.2867
     25  CB        -7.1310    9.4030   13.7440 C.3    20  CYS20       0.0956
     26  SG        -6.1360    8.3680   14.8840 S.3    20  CYS20      -0.0801
     27  N         -5.4670    1.7860   16.9710 N.3    33  VAL33      -0.1245
     28  CA        -6.0930    2.7950   16.1090 C.3    33  VAL33       0.1561
     29  C         -5.8660    2.4850   14.6340 C.2    33  VAL33       0.2260
     30  O         -4.9600    1.7280   14.2830 O.2    33  VAL33      -0.2867
     31  CB        -5.6030    4.2520   16.3910 C.3    33  VAL33       0.0252
     32  CG1       -5.7070    4.5930   17.8660 C.3    33  VAL33       0.0019
     33  CG2       -4.1860    4.4870   15.8550 C.3    33  VAL33       0.0019
     34  N         -5.6000    4.8920   10.8450 N.3    35  LYS35      -0.1245
     35  CA        -5.7470    6.0700   10.0080 C.3    35  LYS35       0.1561
     36  C         -6.5050    5.6530    8.7510 C.2    35  LYS35       0.2260
     37  O         -6.0760    4.7520    8.0300 O.2    35  LYS35      -0.2867
     38  CB        -4.3770    6.6490    9.6470 C.3    35  LYS35       0.0271
     39  CG        -3.4890    6.9400   10.8530 C.3    35  LYS35       0.0035
     40  CD        -3.9730    8.1560   11.6490 C.3    35  LYS35       0.0206
     41  CE        -3.2950    8.2250   13.0170 C.3    35  LYS35       0.1093
     42  NZ        -3.7850    9.4110   13.7680 N.3    35  LYS35      -0.1314
     43  N          5.9630    4.9640   18.0590 N.3    66  VAL66      -0.1245
     44  CA         4.6390    4.4110   17.7530 C.3    66  VAL66       0.1561
     45  C          4.7330    3.2150   16.8060 C.2    66  VAL66       0.2260
     46  O          5.3590    3.2930   15.7480 O.2    66  VAL66      -0.2867
     47  CB         3.6870    5.4560   17.1350 C.3    66  VAL66       0.0252
     48  CG1        2.2890    4.8660   17.0120 C.3    66  VAL66       0.0019
     49  CG2        3.6400    6.6960   17.9850 C.3    66  VAL66       0.0019
     50  N         -2.2780    1.2910   13.7510 N.3    80  MET80      -0.1230
     51  CA        -1.2030    1.6790   14.6630 C.3    80  MET80       0.1702
     52  C         -1.5270    1.3750   16.1170 C.2    80  MET80       0.2592
     53  O         -2.6620    1.0890   16.4820 O.2    80  MET80      -0.2718
     54  CB        -0.9020    3.1880   14.5660 C.3    80  MET80       0.0401
     55  CG        -0.5820    3.7440   13.1810 C.3    80  MET80       0.0596
     56  SD         0.8980    3.0270   12.4630 S.3    80  MET80      -0.1393
     57  CE         2.2050    3.7860   13.4340 C.3    80  MET80       0.0692
     58  N         -0.4940    1.4810   16.9420 N.am   81  GLU81      -0.1966
     59  CA        -0.6100    1.5110   18.3810 C.3    81  GLU81       0.1733
     60  C         -1.5670    2.6260   18.8230 C.2    81  GLU81       0.2616
     61  O         -1.5530    3.7210   18.2630 O.2    81  GLU81      -0.2715
     62  CB         0.7770    1.8100   18.9380 C.3    81  GLU81       0.0429
     63  CG         0.9700    1.5270   20.3880 C.3    81  GLU81       0.1163
     64  CD         2.2550    2.1140   20.8950 C.2    81  GLU81       0.3649
     65  OE1        3.2270    2.2100   20.1100 O.co2  81  GLU81      -0.2457
     66  OE2        2.2870    2.4910   22.0810 O.co2  81  GLU81      -0.2457
     67  N         -2.3860    2.3200   19.8280 N.am   82  TYR82      -0.1960
     68  CA        -3.2220    3.2980   20.5110 C.3    82  TYR82       0.1771
     69  C         -2.4600    3.9900   21.6460 C.2    82  TYR82       0.2620
     70  O         -1.8760    3.3300   22.5150 O.2    82  TYR82      -0.2715
     71  CB        -4.4770    2.6200   21.0620 C.3    82  TYR82       0.0574
     72  CG        -5.3850    3.5300   21.8620 C.ar   82  TYR82      -0.0198
     73  CD1       -5.9320    4.6830   21.2930 C.ar   82  TYR82      -0.0009
     74  CD2       -5.7110    3.2290   23.1830 C.ar   82  TYR82      -0.0009
     75  CE1       -6.7640    5.5230   22.0230 C.ar   82  TYR82       0.0417
     76  CE2       -6.5470    4.0590   23.9200 C.ar   82  TYR82       0.0417
     77  CZ        -7.0710    5.2010   23.3360 C.ar   82  TYR82       0.1957
     78  OH        -7.9050    6.0210   24.0630 O.3    82  TYR82      -0.2866
     79  N         -2.4880    5.3210   21.6270 N.am   83  CYS83      -0.1954
     80  CA        -1.8150    6.1550   22.6150 C.3    83  CYS83       0.1843
     81  C         -2.8530    6.9380   23.4130 C.2    83  CYS83       0.2625
     82  O         -3.2140    8.0600   23.0600 O.2    83  CYS83      -0.2714
     83  CB        -0.8320    7.1010   21.9200 C.3    83  CYS83       0.0997
     84  SG         0.4480    6.2360   20.9880 S.3    83  CYS83      -0.0797
     85  N         -3.3260    6.3170   24.4890 N.am   84  GLU84      -0.1963
     86  CA        -4.4020    6.8270   25.3420 C.3    84  GLU84       0.1733
     87  C         -4.2290    8.2940   25.7710 C.2    84  GLU84       0.2617
     88  O         -5.1840    9.0640   25.7640 O.2    84  GLU84      -0.2715
     89  CB        -4.5010    5.9360   26.5820 C.3    84  GLU84       0.0429
     90  CG        -5.8140    6.0030   27.3140 C.3    84  GLU84       0.1163
     91  CD        -5.7810    5.2590   28.6380 C.2    84  GLU84       0.3649
     92  OE1       -4.8520    4.4480   28.8730 O.co2  84  GLU84      -0.2457
     93  OE2       -6.6910    5.4890   29.4570 O.co2  84  GLU84      -0.2457
     94  N         -3.0100    8.6660   26.1480 N.am   85  GLY85      -0.1940
     95  CA        -2.7270   10.0200   26.6360 C.3    85  GLY85       0.2014
     96  C         -2.6890   11.1070   25.5670 C.2    85  GLY85       0.2639
     97  O         -2.5140   12.2810   25.8910 O.2    85  GLY85      -0.2714
     98  N         -2.8330   10.7150   24.3000 N.am   86  GLY86      -0.1939
     99  CA        -2.8710   11.6670   23.1850 C.3    86  GLY86       0.2014
    100  C         -1.5050   12.2740   22.8900 C.2    86  GLY86       0.2638
    101  O         -0.4740   11.7170   23.2480 O.2    86  GLY86      -0.2714
    102  N         -1.5060   13.4360   22.2530 N.am   87  ASP87      -0.1971
    103  CA        -0.2690   14.0670   21.8080 C.3    87  ASP87       0.1709
    104  C          0.2690   15.1100   22.8050 C.2    87  ASP87       0.2293
    105  O         -0.4530   15.5680   23.6870 O.2    87  ASP87      -0.2864
    106  CB        -0.5160   14.7260   20.4600 C.3    87  ASP87       0.1436
    107  CG        -1.5540   15.8210   20.5460 C.2    87  ASP87       0.3671
    108  OD1       -2.7660   15.5380   20.7710 O.co2  87  ASP87      -0.2456
    109  OD2       -1.1420   16.9760   20.4060 O.co2  87  ASP87      -0.2456
    110  N         -1.3600   18.9410   22.8800 N.3    90  SER90      -0.1217
    111  CA        -2.5450   19.0700   23.7160 C.3    90  SER90       0.1889
    112  C         -2.1980   19.2130   25.1950 C.2    90  SER90       0.2288
    113  O         -2.8730   19.9140   25.9180 O.2    90  SER90      -0.2866
    114  CB        -3.4680   17.8730   23.5060 C.3    90  SER90       0.2089
    115  OG        -3.8880   17.7970   22.1530 O.3    90  SER90      -0.2183
    116  N          3.5880   15.5370   17.0420 N.3   131  ASN131     -0.1240
    117  CA         4.0530   14.2270   16.5930 C.3   131  ASN131      0.1653
    118  C          4.6690   13.4010   17.7360 C.2   131  ASN131      0.2266
    119  O          5.4140   12.4510   17.5040 O.2   131  ASN131     -0.2867
    120  CB         5.0330   14.3650   15.4120 C.3   131  ASN131      0.1155
    121  CG         4.3700   14.9150   14.1490 C.2   131  ASN131      0.2627
    122  OD1        3.1730   14.7270   13.9240 O.2   131  ASN131     -0.2716
    123  ND2        5.1570   15.5850   13.3130 N.am  131  ASN131     -0.0877
    124  N          3.5370   11.3150   21.3180 N.3   133  PHE133     -0.1241
    125  CA         2.3490   10.6970   21.8810 C.3   133  PHE133      0.1605
    126  C          2.6080   10.0520   23.2200 C.2   133  PHE133      0.2264
    127  O          3.7510    9.7070   23.5460 O.2   133  PHE133     -0.2867
    128  CB         1.7430    9.7060   20.8760 C.3   133  PHE133      0.0534
    129  CG         1.3350   10.3640   19.6130 C.ar  133  PHE133     -0.0203
    130  CD1        2.2120   10.4240   18.5310 C.ar  133  PHE133     -0.0042
    131  CD2        0.1150   11.0110   19.5280 C.ar  133  PHE133     -0.0042
    132  CE1        1.8590   11.0890   17.3810 C.ar  133  PHE133     -0.0003
    133  CE2       -0.2480   11.6720   18.3700 C.ar  133  PHE133     -0.0003
    134  CZ         0.6330   11.7160   17.2980 C.ar  133  PHE133     -0.0000
    135  N          6.1450    9.6530   16.9160 N.3   143  GLY143     -0.1225
    136  CA         5.4670    9.2720   15.6880 C.3   143  GLY143      0.1811
    137  C          6.4670    8.9830   14.5840 C.2   143  GLY143      0.2280
    138  O          7.4570    9.6990   14.4250 O.2   143  GLY143     -0.2866
    139  N          5.0980    8.3790    8.5990 N.3   147  LEU147     -0.1231
    140  CA         3.6540    8.4920    8.8030 C.3   147  LEU147      0.1693
    141  C          3.2030    9.9540    8.7600 C.2   147  LEU147      0.2591
    142  O          2.1880   10.2730    8.1410 O.2   147  LEU147     -0.2718
    143  CB         3.2260    7.8310   10.1250 C.3   147  LEU147      0.0284
    144  CG         1.7190    7.7270   10.4180 C.3   147  LEU147      0.0019
    145  CD1        1.3890    6.5200   11.2690 C.3   147  LEU147      0.0001
    146  CD2        1.2050    8.9760   11.0840 C.3   147  LEU147      0.0001
    147  N          3.9540   10.8320    9.4260 N.am  148  ALA148     -0.1980
    148  CA         3.6330   12.2600    9.4620 C.3   148  ALA148      0.1597
    149  C          3.7400   12.9040    8.0790 C.2   148  ALA148      0.2287
    150  O          3.0620   13.8960    7.7990 O.2   148  ALA148     -0.2864
    151  CB         4.5200   12.9830   10.4580 C.3   148  ALA148      0.0319
    152  N          0.4660   11.7360    6.1390 N.3   151  LEU151     -0.1245
    153  CA        -0.6480   12.4590    6.7500 C.3   151  LEU151      0.1561
    154  C         -0.5170   13.9630    6.5180 C.2   151  LEU151      0.2260
    155  O         -1.4790   14.7120    6.6810 O.2   151  LEU151     -0.2867
    156  CB        -0.7340   12.1760    8.2530 C.3   151  LEU151      0.0270
    157  CG        -1.0850   10.7780    8.7720 C.3   151  LEU151      0.0019
    158  CD1       -1.5390   10.8900   10.2260 C.3   151  LEU151      0.0001
    159  CD2       -2.1470   10.0720    7.9270 C.3   151  LEU151      0.0001
@<TRIPOS>BOND
     1   152   153    1
     2   154   155    2
     3   154   153    1
     4   153   156    1
     5   150   149    2
     6   159   157    1
     7    37    36    2
     8   149   148    1
     9   142   141    2
    10   156   157    1
    11   139   140    1
    12    36    35    1
    13   141   140    1
    14   141   147   am
    15   157   158    1
    16   140   143    1
    17   147   148    1
    18   148   151    1
    19    38    35    1
    20    38    39    1
    21    35    34    1
    22   143   144    1
    23   144   146    1
    24   144   145    1
    25    39    40    1
    26    40    41    1
    27    21    22    1
    28    56    55    1
    29    56    57    1
    30    22    25    1
    31    22    23    1
    32    41    42    1
    33    55    54    1
    34   123   121   am
    35    25    26    1
    36    50    51    1
    37    23    24    2
    38   122   121    2
    39   121   120    1
    40    30    29    2
    41   138   137    2
    42    54    51    1
    43   137   136    1
    44    29    28    1
    45    51    52    1
    46   120   117    1
    47   136   135    1
    48    46    45    2
    49    33    31    1
    50    28    31    1
    51    28    27    1
    52    52    53    2
    53    52    58   am
    54    31    32    1
    55   117   116    1
    56   117   118    1
    57    13    14    1
    58    45    44    1
    59     4     3    2
    60    58    59    1
    61    48    47    1
    62     3     2    1
    63    15    14    1
    64    15    16    2
    65    47    44    1
    66    47    49    1
    67   134   132   ar
    68   134   133   ar
    69   132   130   ar
    70   119   118    2
    71    14    17    1
    72    44    43    1
    73     2     1    1
    74     2     5    1
    75    17    19    1
    76    17    18    1
    77    61    60    2
    78   133   131   ar
    79    59    60    1
    80    59    62    1
    81   130   129   ar
    82    20    18    1
    83    60    67   am
    84    62    63    1
    85     5     6    1
    86   131   129   ar
    87   129   128    1
    88    67    68    1
    89    65    64   ar
    90     6     7   ar
    91     6     8   ar
    92     7     9   ar
    93    63    64    1
    94   109   107   ar
    95   106   107    1
    96   106   103    1
    97    68    71    1
    98    68    69    1
    99   107   108   ar
   100   128   125    1
   101    64    66   ar
   102    84    83    1
   103    71    72    1
   104     8    10   ar
   105     9    11   ar
   106    73    72   ar
   107    73    75   ar
   108   124   125    1
   109    79    69   am
   110    79    80    1
   111    69    70    2
   112   103   102    1
   113   103   104    1
   114    72    74   ar
   115   125   126    1
   116    83    80    1
   117    75    77   ar
   118   115   114    1
   119    10    11   ar
   120    11    12    1
   121   102   100   am
   122    80    81    1
   123   104   105    2
   124   110   111    1
   125   100    99    1
   126   100   101    2
   127    82    81    2
   128    74    76   ar
   129    99    98    1
   130   126   127    2
   131    77    76   ar
   132    77    78    1
   133    81    85   am
   134   114   111    1
   135   111   112    1
   136    98    96   am
   137    85    86    1
   138   112   113    2
   139    86    87    1
   140    86    89    1
   141    96    97    2
   142    96    95    1
   143    88    87    2
   144    87    94   am
   145    94    95    1
   146    89    90    1
   147    90    91    1
   148    91    92   ar
   149    91    93   ar
