@<TRIPOS>MOLECULE
tmp/2jawA00.pdb
 164 161 0 0 0
SMALL
GASTEIGER

@<TRIPOS>ATOM
      1  N         21.5560   39.6470   35.1490 N.3     8  ASN8       -0.1240
      2  CA        20.5300   40.1040   34.2190 C.3     8  ASN8        0.1653
      3  C         19.5220   40.9780   34.9690 C.2     8  ASN8        0.2266
      4  O         19.4070   40.8810   36.1860 O.2     8  ASN8       -0.2867
      5  CB        19.8700   38.8630   33.6220 C.3     8  ASN8        0.1155
      6  CG        18.8250   39.1870   32.5850 C.2     8  ASN8        0.2627
      7  OD1       17.7160   38.6460   32.6360 O.2     8  ASN8       -0.2716
      8  ND2       19.1830   40.0310   31.6050 N.am    8  ASN8       -0.0877
      9  N         15.7360   42.1540   33.7210 N.3    10  ASP10      -0.1239
     10  CA        14.3540   41.6770   33.6820 C.3    10  ASP10       0.1674
     11  C         14.2970   40.1990   34.0370 C.2    10  ASP10       0.2266
     12  O         15.0270   39.3870   33.4610 O.2    10  ASP10      -0.2867
     13  CB        13.7600   41.8740   32.2810 C.3    10  ASP10       0.1410
     14  CG        13.6220   43.3530   31.9230 C.2    10  ASP10       0.3668
     15  OD1       13.0120   44.0830   32.7030 O.co2  10  ASP10      -0.2456
     16  OD2       14.1740   43.7850   30.9080 O.co2  10  ASP10      -0.2456
     17  N          9.5310   41.7890   35.5940 N.3    16  PHE16      -0.1241
     18  CA         8.8940   41.9750   34.2800 C.3    16  PHE16       0.1605
     19  C          7.5620   41.2020   34.1890 C.2    16  PHE16       0.2264
     20  O          6.5450   41.7510   33.7690 O.2    16  PHE16      -0.2867
     21  CB         9.8690   41.4820   33.2000 C.3    16  PHE16       0.0534
     22  CG         9.4030   41.7360   31.7910 C.ar   16  PHE16      -0.0203
     23  CD1        8.4820   40.8780   31.1790 C.ar   16  PHE16      -0.0042
     24  CD2        9.8640   42.8420   31.0850 C.ar   16  PHE16      -0.0042
     25  CE1        8.0420   41.1060   29.8710 C.ar   16  PHE16      -0.0003
     26  CE2        9.4160   43.0820   29.7560 C.ar   16  PHE16      -0.0003
     27  CZ         8.4990   42.2150   29.1760 C.ar   16  PHE16      -0.0000
     28  N         10.2250   31.5280   27.1770 N.3    42  PHE42      -0.1227
     29  CA        10.7440   32.8560   27.4710 C.3    42  PHE42       0.1736
     30  C          9.8290   33.9650   26.9760 C.2    42  PHE42       0.2595
     31  O          9.5250   34.8780   27.7260 O.2    42  PHE42      -0.2718
     32  CB        12.1420   33.0320   26.8790 C.3    42  PHE42       0.0547
     33  CG        12.7560   34.3760   27.1700 C.ar   42  PHE42      -0.0202
     34  CD1       13.2040   34.6940   28.4590 C.ar   42  PHE42      -0.0042
     35  CD2       12.9010   35.3260   26.1590 C.ar   42  PHE42      -0.0042
     36  CE1       13.7740   35.9500   28.7230 C.ar   42  PHE42      -0.0003
     37  CE2       13.4590   36.5840   26.4260 C.ar   42  PHE42      -0.0003
     38  CZ        13.8920   36.8850   27.7070 C.ar   42  PHE42      -0.0000
     39  N          9.3830   33.8720   25.7230 N.am   43  TRP43      -0.1962
     40  CA         8.6480   34.9730   25.0740 C.3    43  TRP43       0.1771
     41  C          7.1860   35.0770   25.4740 C.2    43  TRP43       0.2619
     42  O          6.3470   34.2450   25.0720 O.2    43  TRP43      -0.2715
     43  CB         8.7750   34.9060   23.5470 C.3    43  TRP43       0.0590
     44  CG        10.1840   34.8250   23.0400 C.ar   43  TRP43       0.0006
     45  CD1       10.8020   33.7320   22.5120 C.ar   43  TRP43       0.0946
     46  CD2       11.1440   35.8920   22.9930 C.ar   43  TRP43       0.0152
     47  NE1       12.0900   34.0480   22.1450 N.ar   43  TRP43      -0.2442
     48  CE2       12.3260   35.3650   22.4320 C.ar   43  TRP43       0.0810
     49  CE3       11.1190   37.2390   23.3780 C.ar   43  TRP43       0.0012
     50  CZ2       13.4740   36.1360   22.2420 C.ar   43  TRP43       0.0191
     51  CZ3       12.2630   38.0080   23.1880 C.ar   43  TRP43       0.0001
     52  CH2       13.4200   37.4550   22.6210 C.ar   43  TRP43       0.0015
     53  N          6.8850   36.1130   26.2580 N.am   44  VAL44      -0.1963
     54  CA         5.5260   36.4220   26.6750 C.3    44  VAL44       0.1727
     55  C          4.6150   36.6030   25.4340 C.2    44  VAL44       0.2616
     56  O          3.5070   36.0640   25.3950 O.2    44  VAL44      -0.2715
     57  CB         5.4720   37.7050   27.5790 C.3    44  VAL44       0.0290
     58  CG1        4.0420   38.1860   27.7740 C.3    44  VAL44       0.0023
     59  CG2        6.1080   37.4590   28.9410 C.3    44  VAL44       0.0023
     60  N          5.1050   37.3480   24.4400 N.am   45  SER45      -0.1950
     61  CA         4.3330   37.6880   23.2340 C.3    45  SER45       0.1924
     62  C          3.8930   36.4420   22.4570 C.2    45  SER45       0.2314
     63  O          2.7610   36.3850   21.9650 O.2    45  SER45      -0.2863
     64  CB         5.1450   38.6020   22.3180 C.3    45  SER45       0.2116
     65  OG         6.3950   38.0180   22.0150 O.3    45  SER45      -0.2180
     66  N          2.7530   43.3610   23.3840 N.3    60  ILE60      -0.1245
     67  CA         3.8920   44.2170   23.0300 C.3    60  ILE60       0.1561
     68  C          3.6290   45.6620   23.4210 C.2    60  ILE60       0.2260
     69  O          4.5300   46.3400   23.9380 O.2    60  ILE60      -0.2867
     70  CB         4.2590   44.0840   21.5400 C.3    60  ILE60       0.0252
     71  CG1        4.8870   42.7060   21.2680 C.3    60  ILE60       0.0019
     72  CG2        5.2270   45.2140   21.0820 C.3    60  ILE60       0.0019
     73  CD1        4.8540   42.2860   19.7780 C.3    60  ILE60       0.0001
     74  N          4.7360   46.6410   27.1610 N.3    63  TRP63      -0.1241
     75  CA         6.1420   46.9930   27.4300 C.3    63  TRP63       0.1605
     76  C          6.7230   48.0940   26.5500 C.2    63  TRP63       0.2264
     77  O          7.7720   48.6620   26.8810 O.2    63  TRP63      -0.2867
     78  CB         7.0480   45.7670   27.4840 C.3    63  TRP63       0.0550
     79  CG         7.0830   44.8790   26.2890 C.ar   63  TRP63       0.0003
     80  CD1        7.7130   45.1050   25.1090 C.ar   63  TRP63       0.0946
     81  CD2        6.5030   43.5830   26.2030 C.ar   63  TRP63       0.0152
     82  NE1        7.5660   44.0120   24.2760 N.ar   63  TRP63      -0.2442
     83  CE2        6.8100   43.0700   24.9280 C.ar   63  TRP63       0.0810
     84  CE3        5.7380   42.8030   27.0860 C.ar   63  TRP63       0.0012
     85  CZ2        6.3910   41.8050   24.5120 C.ar   63  TRP63       0.0191
     86  CZ3        5.3070   41.5380   26.6560 C.ar   63  TRP63       0.0001
     87  CH2        5.6400   41.0580   25.3980 C.ar   63  TRP63       0.0015
     88  N          9.0710   49.9840   32.0860 N.3    69  PHE69      -0.1241
     89  CA        10.3140   49.4720   32.6880 C.3    69  PHE69       0.1605
     90  C         10.5920   50.2020   33.9850 C.2    69  PHE69       0.2264
     91  O         10.9680   49.5710   34.9910 O.2    69  PHE69      -0.2867
     92  CB        11.4980   49.5380   31.7070 C.3    69  PHE69       0.0534
     93  CG        11.4090   48.5130   30.6200 C.ar   69  PHE69      -0.0203
     94  CD1       11.8080   47.2060   30.8500 C.ar   69  PHE69      -0.0042
     95  CD2       10.8350   48.8360   29.3880 C.ar   69  PHE69      -0.0042
     96  CE1       11.6960   46.2130   29.8520 C.ar   69  PHE69      -0.0003
     97  CE2       10.6990   47.8650   28.3900 C.ar   69  PHE69      -0.0003
     98  CZ        11.1210   46.5510   28.6110 C.ar   69  PHE69      -0.0000
     99  N         21.7950   43.6800   30.4480 N.3    97  THR97      -0.1203
    100  CA        20.3870   43.6830   30.1250 C.3    97  THR97       0.1994
    101  C         20.1960   44.0030   28.6470 C.2    97  THR97       0.2619
    102  O         21.0020   44.7460   28.0610 O.2    97  THR97      -0.2717
    103  CB        19.6250   44.7000   31.0520 C.3    97  THR97       0.1784
    104  OG1       18.2310   44.7520   30.7210 O.3    97  THR97      -0.2211
    105  CG2       20.2290   46.0890   30.9620 C.3    97  THR97       0.0376
    106  N         19.1430   43.4400   28.0560 N.am   98  SER98      -0.1938
    107  CA        18.8150   43.6860   26.6540 C.3    98  SER98       0.2040
    108  C         17.6430   44.6530   26.5490 C.2    98  SER98       0.2485
    109  O         16.6070   44.4530   27.2120 O.2    98  SER98      -0.2729
    110  CB        18.5000   42.3690   25.9370 C.3    98  SER98       0.2129
    111  OG        19.6320   41.4880   26.0350 O.3    98  SER98      -0.2179
    112  N         17.7930   45.7120   25.7290 N.am   99  PRO99      -0.2715
    113  CA        16.6320   46.5500   25.5710 C.3    99  PRO99       0.1536
    114  C         15.6690   45.9170   24.5510 C.2    99  PRO99       0.2598
    115  O         16.0680   45.0050   23.7980 O.2    99  PRO99      -0.2715
    116  CB        17.2200   47.8640   25.0250 C.3    99  PRO99       0.0310
    117  CG        18.4030   47.4270   24.1940 C.3    99  PRO99       0.0237
    118  CD        18.9410   46.1720   24.9110 C.3    99  PRO99       0.0939
    119  N         14.4210   46.3930   24.5330 N.am  100  ILE100     -0.1964
    120  CA        13.4550   45.9860   23.5030 C.3   100  ILE100      0.1727
    121  C         13.7690   46.7580   22.2150 C.2   100  ILE100      0.2616
    122  O         14.6090   47.6550   22.2140 O.2   100  ILE100     -0.2715
    123  CB        11.9790   46.2380   23.9190 C.3   100  ILE100      0.0290
    124  CG1       11.7460   47.7050   24.3310 C.3   100  ILE100      0.0022
    125  CG2       11.5550   45.2730   24.9990 C.3   100  ILE100      0.0023
    126  CD1       10.2220   48.1250   24.4450 C.3   100  ILE100      0.0001
    127  N         13.1130   46.4000   21.1170 N.am  101  LYS101     -0.1977
    128  CA        13.4430   46.9940   19.8220 C.3   101  LYS101      0.1596
    129  C         13.0890   48.4840   19.7810 C.2   101  LYS101      0.2287
    130  O         13.8410   49.2920   19.2110 O.2   101  LYS101     -0.2864
    131  CB        12.7600   46.2250   18.6760 C.3   101  LYS101      0.0298
    132  CG        13.3300   44.8060   18.4800 C.3   101  LYS101      0.0038
    133  CD        12.3810   43.9450   17.6100 C.3   101  LYS101      0.0206
    134  CE        12.5190   42.4650   17.9720 C.3   101  LYS101      0.1093
    135  NZ        11.8420   41.6120   16.9340 N.3   101  LYS101     -0.1314
    136  N         15.6510   52.0200   32.1540 N.3   110  LYS110     -0.1245
    137  CA        16.5210   51.0290   32.7710 C.3   110  LYS110      0.1561
    138  C         17.6490   51.7230   33.5380 C.2   110  LYS110      0.2260
    139  O         17.9410   51.3570   34.6690 O.2   110  LYS110     -0.2867
    140  CB        17.0670   50.0840   31.6900 C.3   110  LYS110      0.0271
    141  CG        16.0320   49.0540   31.2790 C.3   110  LYS110      0.0035
    142  CD        16.6660   48.0780   30.2860 C.3   110  LYS110      0.0206
    143  CE        15.6830   46.9580   29.9470 C.3   110  LYS110      0.1093
    144  NZ        15.6930   45.9450   31.0240 N.3   110  LYS110     -0.1314
    145  N         22.1460   43.4890   23.0690 N.3   130  ARG130     -0.1245
    146  CA        21.2490   42.4050   22.6360 C.3   130  ARG130      0.1563
    147  C         21.9990   41.0720   22.6150 C.2   130  ARG130      0.2260
    148  O         21.3750   40.0130   22.4890 O.2   130  ARG130     -0.2867
    149  CB        20.6560   42.6880   21.2550 C.3   130  ARG130      0.0307
    150  CG        19.7660   43.9260   21.2090 C.3   130  ARG130      0.0489
    151  CD        18.3460   43.6340   21.6870 C.3   130  ARG130      0.2205
    152  NE        17.5590   42.9720   20.6440 N.pl3 130  ARG130     -0.0865
    153  CZ        16.2830   42.6090   20.7750 C.cat 130  ARG130      0.5346
    154  NH1       15.6270   42.8390   21.9120 N.pl3 130  ARG130      0.1354
    155  NH2       15.6540   42.0150   19.7650 N.pl3 130  ARG130      0.1354
    156  N         24.6170   38.8630   24.7370 N.3   132  LYS132     -0.1245
    157  CA        25.3440   38.6910   25.9870 C.3   132  LYS132      0.1561
    158  C         26.5810   37.8280   25.8370 C.2   132  LYS132      0.2260
    159  O         27.4520   37.8250   26.7140 O.2   132  LYS132     -0.2867
    160  CB        24.4100   38.1040   27.0540 C.3   132  LYS132      0.0271
    161  CG        23.2180   39.0390   27.3900 C.3   132  LYS132      0.0035
    162  CD        22.2490   38.3490   28.3320 C.3   132  LYS132      0.0206
    163  CE        20.8590   39.0390   28.3520 C.3   132  LYS132      0.1093
    164  NZ        19.8220   37.9210   28.3170 N.3   132  LYS132     -0.1314
@<TRIPOS>BOND
     1   135   134    1
     2   133   134    1
     3   133   132    1
     4   132   131    1
     5   131   128    1
     6   130   129    2
     7   155   153    1
     8    73    71    1
     9   129   128    1
    10   128   127    1
    11   152   153    2
    12   152   151    1
    13   153   154    1
    14    72    70    1
    15   127   121   am
    16   150   149    1
    17   150   151    1
    18   149   146    1
    19    71    70    1
    20    70    67    1
    21    63    62    2
    22    65    64    1
    23    47    48   ar
    24    47    45   ar
    25   122   121    2
    26   121   120    1
    27    50    48   ar
    28    50    52   ar
    29    64    61    1
    30    48    46   ar
    31    62    61    1
    32   148   147    2
    33    45    44   ar
    34   147   146    1
    35    52    51   ar
    36   146   145    1
    37    46    44   ar
    38    46    49   ar
    39    67    66    1
    40    67    68    1
    41    44    43    1
    42    51    49   ar
    43    61    60    1
    44    68    69    2
    45   120   123    1
    46   120   119    1
    47    43    40    1
    48   115   114    2
    49   123   124    1
    50   123   125    1
    51   117   118    1
    52   117   116    1
    53    82    83   ar
    54    82    80   ar
    55   124   126    1
    56    60    55   am
    57    85    83   ar
    58    85    87   ar
    59   119   114   am
    60   114   113    1
    61   156   157    1
    62   118   112    1
    63    83    81   ar
    64   116   113    1
    65    42    41    2
    66    40    41    1
    67    40    39    1
    68    80    79   ar
    69    56    55    2
    70    87    86   ar
    71    55    54    1
    72    41    53   am
    73   113   112    1
    74    39    30   am
    75   112   108   am
    76   158   157    1
    77   158   159    2
    78   110   111    1
    79   110   107    1
    80   157   160    1
    81    35    37   ar
    82    35    33   ar
    83    81    79   ar
    84    81    84   ar
    85    53    54    1
    86    79    78    1
    87    37    38   ar
    88   108   107    1
    89   108   109    2
    90    76    77    2
    91    76    75    1
    92   107   106    1
    93    86    84   ar
    94    54    57    1
    95    32    33    1
    96    32    29    1
    97    30    29    1
    98    30    31    2
    99   160   161    1
   100    74    75    1
   101    33    34   ar
   102    28    29    1
   103   161   162    1
   104    75    78    1
   105    57    58    1
   106    57    59    1
   107    38    36   ar
   108   106   101   am
   109   102   101    2
   110   164   163    1
   111   162   163    1
   112    97    98   ar
   113    97    95   ar
   114    34    36   ar
   115    98    96   ar
   116   101   100    1
   117    27    26   ar
   118    27    25   ar
   119    95    93   ar
   120    26    24   ar
   121    96    94   ar
   122    25    23   ar
   123   143   142    1
   124   143   144    1
   125   100    99    1
   126   100   103    1
   127   142   141    1
   128    93    94   ar
   129    93    92    1
   130   104   103    1
   131    16    14   ar
   132   105   103    1
   133    24    22   ar
   134    23    22   ar
   135   141   140    1
   136     8     6   am
   137   140   137    1
   138    92    89    1
   139    22    21    1
   140    14    13    1
   141    14    15   ar
   142    88    89    1
   143   136   137    1
   144    13    10    1
   145     6     7    2
   146     6     5    1
   147    89    90    1
   148   137   138    1
   149    21    18    1
   150    12    11    2
   151   138   139    2
   152     5     2    1
   153    10     9    1
   154    10    11    1
   155    20    19    2
   156    90    91    2
   157    19    18    1
   158     2     3    1
   159     2     1    1
   160    18    17    1
   161     3     4    2
