@<TRIPOS>MOLECULE
tmp/2jb3A01.pdb
 112 109 0 0 0
SMALL
GASTEIGER

@<TRIPOS>ATOM
      1  N         21.3920   37.3940   10.8810 N.3    79  ALA79      -0.1231
      2  CA        22.4810   38.3580   10.7980 C.3    79  ALA79       0.1694
      3  C         22.8750   38.5730    9.3460 C.2    79  ALA79       0.2593
      4  O         22.9950   37.6110    8.6070 O.2    79  ALA79      -0.2718
      5  CB        23.6780   37.8810   11.6000 C.3    79  ALA79       0.0304
      6  N         22.9990   39.8320    8.9410 N.am   80  THR80      -0.1939
      7  CA        23.3290   40.1710    7.5720 C.3    80  THR80       0.2028
      8  C         24.4180   41.2250    7.3400 C.2    80  THR80       0.2642
      9  O         24.9950   41.2350    6.2660 O.2    80  THR80      -0.2714
     10  CB        22.0890   40.5000    6.7540 C.3    80  THR80       0.1808
     11  OG1       22.4000   40.3200    5.3730 O.3    80  THR80      -0.2208
     12  CG2       21.5370   41.9180    7.0230 C.3    80  THR80       0.0379
     13  N         24.7460   42.0470    8.3410 N.am   81  ARG81      -0.1977
     14  CA        25.6250   43.1670    8.1430 C.3    81  ARG81       0.1597
     15  C         26.4710   43.4110    9.3930 C.2    81  ARG81       0.2287
     16  O         26.0650   43.0850   10.5190 O.2    81  ARG81      -0.2864
     17  CB        24.8200   44.4200    7.7390 C.3    81  ARG81       0.0334
     18  CG        23.7800   44.8430    8.7530 C.3    81  ARG81       0.0492
     19  CD        22.7550   45.8920    8.2400 C.3    81  ARG81       0.2205
     20  NE        21.5230   45.8490    9.0270 N.pl3  81  ARG81      -0.0865
     21  CZ        20.4460   46.5660    8.7730 C.cat  81  ARG81       0.5346
     22  NH1       20.4060   47.3300    7.7160 N.pl3  81  ARG81       0.1354
     23  NH2       19.3790   46.4600    9.5480 N.pl3  81  ARG81       0.1354
     24  N         19.1830   56.9400   10.7480 N.3   219  PHE219     -0.1241
     25  CA        19.6470   55.5630   10.6290 C.3   219  PHE219      0.1605
     26  C         21.0720   55.5170   10.1170 C.2   219  PHE219      0.2264
     27  O         21.8590   54.6850   10.5830 O.2   219  PHE219     -0.2867
     28  CB        18.7490   54.7330    9.6840 C.3   219  PHE219      0.0534
     29  CG        19.1810   53.2970    9.5380 C.ar  219  PHE219     -0.0203
     30  CD1       18.7610   52.3450   10.4550 C.ar  219  PHE219     -0.0042
     31  CD2       20.0980   52.9260    8.5730 C.ar  219  PHE219     -0.0042
     32  CE1       19.1340   51.0320   10.3200 C.ar  219  PHE219     -0.0003
     33  CE2       20.4740   51.6130    8.4430 C.ar  219  PHE219     -0.0003
     34  CZ        20.0390   50.6790    9.3560 C.ar  219  PHE219     -0.0000
     35  N         25.5720   50.8130   12.2990 N.3   225  GLN225     -0.1245
     36  CA        24.9040   50.8650   10.9990 C.3   225  GLN225      0.1566
     37  C         25.5720   51.7670    9.9660 C.2   225  GLN225      0.2260
     38  O         25.3870   51.5490    8.7560 O.2   225  GLN225     -0.2867
     39  CB        23.4610   51.3180   11.1950 C.3   225  GLN225      0.0367
     40  CG        22.6360   50.4050   12.1360 C.3   225  GLN225      0.0905
     41  CD        22.2710   49.0470   11.5380 C.2   225  GLN225      0.2608
     42  OE1       22.5590   48.7720   10.3610 O.2   225  GLN225     -0.2717
     43  NE2       21.4540   48.2790   12.2830 N.am  225  GLN225     -0.0878
     44  N         11.8940   38.0060    8.2370 N.3   320  LYS320     -0.1245
     45  CA        12.2210   38.4270    6.8800 C.3   320  LYS320      0.1561
     46  C         11.4890   37.5260    5.9010 C.2   320  LYS320      0.2260
     47  O         11.2340   36.3750    6.1740 O.2   320  LYS320     -0.2867
     48  CB        13.7320   38.3860    6.6010 C.3   320  LYS320      0.0271
     49  CG        14.5930   39.1440    7.6330 C.3   320  LYS320      0.0035
     50  CD        16.0600   39.3180    7.1770 C.3   320  LYS320      0.0206
     51  CE        16.9800   39.8860    8.2510 C.3   320  LYS320      0.1093
     52  NZ        18.4080   39.9840    7.8010 N.3   320  LYS320     -0.1314
     53  N         10.7440   47.7260    5.2940 N.3   349  GLN349     -0.1245
     54  CA        11.8530   47.9790    4.3880 C.3   349  GLN349      0.1566
     55  C         11.9780   46.8400    3.3910 C.2   349  GLN349      0.2260
     56  O         11.6590   45.6820    3.6910 O.2   349  GLN349     -0.2867
     57  CB        13.1740   48.2130    5.1480 C.3   349  GLN349      0.0367
     58  CG        13.7730   47.0060    5.8720 C.3   349  GLN349      0.0905
     59  CD        14.9090   47.3780    6.8010 C.2   349  GLN349      0.2608
     60  OE1       15.8530   48.0620    6.3880 O.2   349  GLN349     -0.2717
     61  NE2       14.9460   46.7460    7.9710 N.am  349  GLN349     -0.0878
     62  N         11.8320   43.1320    6.1290 N.3   368  TYR368     -0.1241
     63  CA        12.5430   42.8560    7.3500 C.3   368  TYR368      0.1605
     64  C         11.9060   43.7390    8.4120 C.2   368  TYR368      0.2264
     65  O         12.1490   44.9150    8.4650 O.2   368  TYR368     -0.2867
     66  CB        14.0370   43.1050    7.1870 C.3   368  TYR368      0.0534
     67  CG        14.8130   43.1370    8.5000 C.ar  368  TYR368     -0.0201
     68  CD1       14.4530   42.3020    9.5520 C.ar  368  TYR368     -0.0009
     69  CD2       16.0600   43.7390    8.5640 C.ar  368  TYR368     -0.0009
     70  CE1       15.1510   42.3370   10.7750 C.ar  368  TYR368      0.0417
     71  CE2       16.8010   43.7000    9.7230 C.ar  368  TYR368      0.0417
     72  CZ        16.2550   43.1480   10.8770 C.ar  368  TYR368      0.1957
     73  OH        17.0450   43.0490   12.0150 O.3   368  TYR368     -0.2866
     74  N         10.1390   44.0370   12.6170 N.3   370  SER370     -0.1217
     75  CA        10.3410   43.6550   13.9840 C.3   370  SER370      0.1889
     76  C          9.2270   44.2560   14.8380 C.2   370  SER370      0.2288
     77  O          8.4980   45.1320   14.4010 O.2   370  SER370     -0.2866
     78  CB        11.6950   44.1440   14.4720 C.3   370  SER370      0.2089
     79  OG        12.7500   43.6620   13.6490 O.3   370  SER370     -0.2183
     80  N         15.9280   38.2300   19.5390 N.3   423  TRP423     -0.1241
     81  CA        16.9280   38.7730   20.4830 C.3   423  TRP423      0.1605
     82  C         16.2150   39.1630   21.7580 C.2   423  TRP423      0.2264
     83  O         15.0050   39.4220   21.7130 O.2   423  TRP423     -0.2867
     84  CB        17.6700   39.9970   19.9100 C.3   423  TRP423      0.0550
     85  CG        16.8010   41.1180   19.4170 C.ar  423  TRP423      0.0003
     86  CD1       16.0370   41.9690   20.1670 C.ar  423  TRP423      0.0946
     87  CD2       16.5730   41.4790   18.0430 C.ar  423  TRP423      0.0152
     88  NE1       15.3320   42.8280   19.3380 N.ar  423  TRP423     -0.2442
     89  CE2       15.6300   42.5280   18.0330 C.ar  423  TRP423      0.0810
     90  CE3       17.0230   40.9720   16.8200 C.ar  423  TRP423      0.0012
     91  CZ2       15.2230   43.1420   16.8520 C.ar  423  TRP423      0.0191
     92  CZ3       16.6000   41.5890   15.6450 C.ar  423  TRP423      0.0001
     93  CH2       15.7230   42.6520   15.6750 C.ar  423  TRP423      0.0015
     94  N         21.7970   41.4390   19.7860 N.3   456  ALA456     -0.1231
     95  CA        21.3560   41.3780   18.3870 C.3   456  ALA456      0.1694
     96  C         22.5020   41.7220   17.4430 C.2   456  ALA456      0.2592
     97  O         22.3050   41.9770   16.2680 O.2   456  ALA456     -0.2718
     98  CB        20.1330   42.2760   18.1640 C.3   456  ALA456      0.0304
     99  N         23.7180   41.4940   17.9310 N.am  457  TRP457     -0.1976
    100  CA        24.9380   41.6240   17.1330 C.3   457  TRP457      0.1640
    101  C         25.8240   40.4390   17.4070 C.2   457  TRP457      0.2290
    102  O         26.0050   40.0700   18.5610 O.2   457  TRP457     -0.2864
    103  CB        25.6680   42.9330   17.4270 C.3   457  TRP457      0.0576
    104  CG        24.9800   44.1400   16.9800 C.ar  457  TRP457      0.0006
    105  CD1       24.2570   44.9850   17.7540 C.ar  457  TRP457      0.0946
    106  CD2       24.8310   44.6070   15.6340 C.ar  457  TRP457      0.0152
    107  NE1       23.6340   45.9210   16.9810 N.ar  457  TRP457     -0.2442
    108  CE2       23.9140   45.6660   15.6640 C.ar  457  TRP457      0.0810
    109  CE3       25.3390   44.1930   14.3990 C.ar  457  TRP457      0.0012
    110  CZ2       23.6410   46.4320   14.5430 C.ar  457  TRP457      0.0191
    111  CZ3       25.0220   44.9070   13.2830 C.ar  457  TRP457      0.0001
    112  CH2       24.1610   46.0070   13.3580 C.ar  457  TRP457      0.0015
@<TRIPOS>BOND
     1    55    56    2
     2    55    54    1
     3    54    57    1
     4    54    53    1
     5    57    58    1
     6    11    10    1
     7    58    59    1
     8    46    47    2
     9    46    45    1
    10    62    63    1
    11     9     8    2
    12    60    59    2
    13    48    45    1
    14    48    49    1
    15    10    12    1
    16    10     7    1
    17    59    61   am
    18    45    44    1
    19    50    49    1
    20    50    51    1
    21    66    63    1
    22    66    67    1
    23     8     7    1
    24     8    13   am
    25    63    64    1
    26     7     6    1
    27    22    21    1
    28    17    14    1
    29    17    18    1
    30    52    51    1
    31    14    13    1
    32    14    15    1
    33    19    18    1
    34    19    20    1
    35    64    65    2
    36    33    31   ar
    37    33    34   ar
    38    67    69   ar
    39    67    68   ar
    40    69    71   ar
    41    31    29   ar
    42     4     3    2
    43    38    37    2
    44    21    20    2
    45    21    23    1
    46     6     3   am
    47     3     2    1
    48    34    32   ar
    49    15    16    2
    50    29    28    1
    51    29    30   ar
    52    68    70   ar
    53    28    25    1
    54    71    72   ar
    55    37    36    1
    56    26    27    2
    57    26    25    1
    58    32    30   ar
    59    42    41    2
    60    25    24    1
    61    70    72   ar
    62     2     1    1
    63     2     5    1
    64    72    73    1
    65    36    39    1
    66    36    35    1
    67    39    40    1
    68    41    40    1
    69    41    43   am
    70    74    75    1
    71   111   112   ar
    72   111   109   ar
    73   112   110   ar
    74    79    78    1
    75    75    78    1
    76    75    76    1
    77   109   106   ar
    78    77    76    2
    79   110   108   ar
    80   106   108   ar
    81   106   104   ar
    82    92    93   ar
    83    92    90   ar
    84   108   107   ar
    85    93    91   ar
    86    97    96    2
    87    90    87   ar
    88    91    89   ar
    89   104   103    1
    90   104   105   ar
    91   107   105   ar
    92   100   101    1
    93   100   103    1
    94   100    99    1
    95   101   102    2
    96    96    99   am
    97    96    95    1
    98    89    87   ar
    99    89    88   ar
   100    87    85   ar
   101    98    95    1
   102    95    94    1
   103    88    86   ar
   104    85    84    1
   105    85    86   ar
   106    80    81    1
   107    84    81    1
   108    81    82    1
   109    83    82    2
