@<TRIPOS>MOLECULE
tmp/2jb4A00.pdb
 202 186 0 0 0
SMALL
GASTEIGER

@<TRIPOS>ATOM
      1  N         21.0070   36.0080   10.8160 N.3    85  ARG85      -0.1245
      2  CA        19.9970   35.5890    9.8250 C.3    85  ARG85       0.1563
      3  C         19.3490   34.2570   10.2420 C.2    85  ARG85       0.2260
      4  O         18.1170   34.1290   10.1790 O.2    85  ARG85      -0.2867
      5  CB        20.6370   35.3800    8.4420 C.3    85  ARG85       0.0307
      6  CG        21.1320   36.6840    7.7730 C.3    85  ARG85       0.0489
      7  CD        21.7740   36.4400    6.4310 C.3    85  ARG85       0.2205
      8  NE        20.7640   36.1660    5.4440 N.pl3  85  ARG85      -0.0865
      9  CZ        21.0000   35.6230    4.2510 C.cat  85  ARG85       0.5346
     10  NH1       22.1840   35.2200    3.8560 N.pl3  85  ARG85       0.1354
     11  NH2       20.0000   35.4630    3.4310 N.pl3  85  ARG85       0.1354
     12  N         12.9980   32.9940   15.2460 N.3    89  TYR89      -0.1241
     13  CA        12.5330   34.3480   15.4650 C.3    89  TYR89       0.1605
     14  C         11.2820   34.2220   16.3120 C.2    89  TYR89       0.2264
     15  O         10.2650   33.7400   15.8220 O.2    89  TYR89      -0.2867
     16  CB        12.1680   35.0530   14.1510 C.3    89  TYR89       0.0534
     17  CG        13.3450   35.3220   13.1850 C.ar   89  TYR89      -0.0201
     18  CD1       14.1670   34.3270   12.7520 C.ar   89  TYR89      -0.0009
     19  CD2       13.5330   36.5540   12.6750 C.ar   89  TYR89      -0.0009
     20  CE1       15.1870   34.5480   11.8570 C.ar   89  TYR89       0.0417
     21  CE2       14.5640   36.7800   11.7270 C.ar   89  TYR89       0.0417
     22  CZ        15.3850   35.7720   11.3850 C.ar   89  TYR89       0.1957
     23  OH        16.4140   36.1000   10.4890 O.3    89  TYR89      -0.2866
     24  N         14.4600   30.5520   10.0890 N.3   102  CYS102     -0.1235
     25  CA        15.2350   30.8410    8.8470 C.3   102  CYS102      0.1677
     26  C         16.4120   29.9030    8.7520 C.2   102  CYS102      0.2270
     27  O         17.1350   29.7290    9.7490 O.2   102  CYS102     -0.2867
     28  CB        15.6620   32.2910    8.8200 C.3   102  CYS102      0.0956
     29  SG        16.7490   32.7670    7.4760 S.3   102  CYS102     -0.0801
     30  N         17.8580   32.2670    1.1260 N.3   181  SER181     -0.1217
     31  CA        17.3020   31.8350    2.4120 C.3   181  SER181      0.1889
     32  C         15.9110   31.2920    2.2820 C.2   181  SER181      0.2288
     33  O         15.1610   31.6750    1.4160 O.2   181  SER181     -0.2866
     34  CB        17.3190   33.0000    3.4000 C.3   181  SER181      0.2089
     35  OG        16.4860   34.0340    2.9210 O.3   181  SER181     -0.2183
     36  N         12.5860   30.8830    4.7900 N.3   183  VAL183     -0.1245
     37  CA        11.9540   31.2460    6.0360 C.3   183  VAL183      0.1561
     38  C         10.6760   30.5000    6.1860 C.2   183  VAL183      0.2260
     39  O          9.8220   30.5520    5.3200 O.2   183  VAL183     -0.2867
     40  CB        11.7770   32.7520    6.1690 C.3   183  VAL183      0.0252
     41  CG1       11.3900   33.0830    7.6360 C.3   183  VAL183      0.0019
     42  CG2       13.0280   33.5150    5.7420 C.3   183  VAL183      0.0019
     43  N          7.5650   30.6890    8.1270 N.3   185  ILE185     -0.1245
     44  CA         6.8160   31.6370    8.9570 C.3   185  ILE185      0.1561
     45  C          5.4690   31.0520    9.3890 C.2   185  ILE185      0.2260
     46  O          4.7020   30.5600    8.5630 O.2   185  ILE185     -0.2867
     47  CB         6.5810   32.9710    8.2180 C.3   185  ILE185      0.0252
     48  CG1        7.8280   33.5250    7.6010 C.3   185  ILE185      0.0019
     49  CG2        5.8820   34.0270    9.1020 C.3   185  ILE185      0.0019
     50  CD1        7.5830   34.7100    6.6100 C.3   185  ILE185      0.0001
     51  N          1.9950   32.1600   11.0340 N.3   187  TYR187     -0.1241
     52  CA         1.0330   33.1860   11.4770 C.3   187  TYR187      0.1605
     53  C         -0.0330   32.4710   12.2680 C.2   187  TYR187      0.2264
     54  O         -0.7050   31.6070   11.7160 O.2   187  TYR187     -0.2867
     55  CB         0.4280   33.8900   10.2490 C.3   187  TYR187      0.0534
     56  CG         1.2930   34.9390    9.6390 C.ar  187  TYR187     -0.0201
     57  CD1        1.3080   36.2020   10.2310 C.ar  187  TYR187     -0.0009
     58  CD2        2.1150   34.7320    8.5440 C.ar  187  TYR187     -0.0009
     59  CE1        2.0710   37.2120    9.7780 C.ar  187  TYR187      0.0417
     60  CE2        2.8480   35.7980    8.0420 C.ar  187  TYR187      0.0417
     61  CZ         2.8180   37.0470    8.6970 C.ar  187  TYR187      0.1957
     62  OH         3.5620   38.1780    8.3210 O.3   187  TYR187     -0.2866
     63  N          2.1550   43.0130    8.3360 N.3   209  PHE209     -0.1241
     64  CA         3.4950   43.4400    7.8850 C.3   209  PHE209      0.1605
     65  C          3.2680   44.5750    6.9210 C.2   209  PHE209      0.2264
     66  O          2.4480   44.4530    6.0010 O.2   209  PHE209     -0.2867
     67  CB         4.2980   42.2820    7.2350 C.3   209  PHE209      0.0534
     68  CG         5.7590   42.5880    7.1020 C.ar  209  PHE209     -0.0203
     69  CD1        6.5880   42.5670    8.2030 C.ar  209  PHE209     -0.0042
     70  CD2        6.2890   42.8720    5.8830 C.ar  209  PHE209     -0.0042
     71  CE1        7.9840   42.8610    8.0690 C.ar  209  PHE209     -0.0003
     72  CE2        7.6610   43.1430    5.7620 C.ar  209  PHE209     -0.0003
     73  CZ         8.4960   43.1060    6.8250 C.ar  209  PHE209     -0.0000
     74  N          6.5060   47.1210    1.6720 N.3   212  HIS212     -0.1241
     75  CA         7.9090   46.9550    1.4420 C.3   212  HIS212      0.1621
     76  C          8.1350   46.4660    0.0430 C.2   212  HIS212      0.2264
     77  O          7.2340   45.9590   -0.6020 O.2   212  HIS212     -0.2867
     78  CB         8.4930   45.9260    2.4430 C.3   212  HIS212      0.0745
     79  CG         7.9560   44.5390    2.2700 C.ar  212  HIS212      0.0817
     80  ND1        6.6850   44.1900    2.6820 N.ar  212  HIS212     -0.2268
     81  CD2        8.5090   43.4020    1.7600 C.ar  212  HIS212      0.1154
     82  CE1        6.4680   42.9090    2.3850 C.ar  212  HIS212      0.1986
     83  NE2        7.5430   42.4150    1.7930 N.ar  212  HIS212     -0.2212
     84  N         10.8220   43.5350   -1.5810 N.3   214  ASP214     -0.1225
     85  CA        11.6790   42.4580   -1.0990 C.3   214  ASP214      0.1805
     86  C         13.1560   42.7310   -1.3430 C.2   214  ASP214      0.2597
     87  O         13.5610   43.3190   -2.3680 O.2   214  ASP214     -0.2718
     88  CB        11.3130   41.1300   -1.7510 C.3   214  ASP214      0.1424
     89  CG        10.0210   40.5550   -1.2550 C.2   214  ASP214      0.3668
     90  OD1        9.4520   41.0140   -0.2280 O.co2 214  ASP214     -0.2456
     91  OD2        9.4890   39.7030   -1.9820 O.co2 214  ASP214     -0.2456
     92  N         13.9580   42.2340   -0.3900 N.am  215  VAL215     -0.1980
     93  CA        15.4120   42.1940   -0.5270 C.3   215  VAL215      0.1595
     94  C         15.7300   40.8220   -1.1310 C.2   215  VAL215      0.2287
     95  O         15.8040   39.7910   -0.4280 O.2   215  VAL215     -0.2864
     96  CB        16.1050   42.4140    0.8100 C.3   215  VAL215      0.0276
     97  CG1       17.6180   42.4670    0.6260 C.3   215  VAL215      0.0022
     98  CG2       15.6580   43.7690    1.4030 C.3   215  VAL215      0.0022
     99  N         11.6680   36.4740   -5.3960 N.3   219  THR219     -0.1218
    100  CA        11.1240   35.7750   -4.2520 C.3   219  THR219      0.1862
    101  C         10.1720   34.7100   -4.7470 C.2   219  THR219      0.2287
    102  O          9.3960   34.9490   -5.6530 O.2   219  THR219     -0.2866
    103  CB        10.3820   36.7380   -3.3820 C.3   219  THR219      0.1770
    104  OG1       11.2980   37.7880   -2.9560 O.3   219  THR219     -0.2211
    105  CG2        9.7930   36.0660   -2.1430 C.3   219  THR219      0.0375
    106  N          7.5520   32.0560   -3.3610 N.3   221  LEU221     -0.1245
    107  CA         6.7670   31.9570   -2.1220 C.3   221  LEU221      0.1561
    108  C          5.6760   30.9330   -2.1500 C.2   221  LEU221      0.2260
    109  O          4.8270   30.9620   -3.0470 O.2   221  LEU221     -0.2867
    110  CB         6.1490   33.3110   -1.7980 C.3   221  LEU221      0.0270
    111  CG         5.1920   33.4290   -0.6540 C.3   221  LEU221      0.0019
    112  CD1        5.9250   33.2070    0.6600 C.3   221  LEU221      0.0001
    113  CD2        4.6040   34.8740   -0.6680 C.3   221  LEU221      0.0001
    114  N          2.3840   29.8560    0.1450 N.3   223  GLN223     -0.1245
    115  CA         1.5330   30.2050    1.2780 C.3   223  GLN223      0.1566
    116  C          0.3630   29.3230    1.3330 C.2   223  GLN223      0.2260
    117  O         -0.1170   28.8310    0.2920 O.2   223  GLN223     -0.2867
    118  CB         1.0570   31.6670    1.1820 C.3   223  GLN223      0.0367
    119  CG         2.0980   32.7350    1.0910 C.3   223  GLN223      0.0905
    120  CD         1.5310   34.0580    1.4560 C.2   223  GLN223      0.2608
    121  OE1        0.4810   34.4590    0.9040 O.2   223  GLN223     -0.2717
    122  NE2        2.2150   34.7740    2.3460 N.am  223  GLN223     -0.0878
    123  N         -2.1170   38.8460    0.9460 N.3   229  LEU229     -0.1245
    124  CA        -1.2220   39.7870    0.3190 C.3   229  LEU229      0.1561
    125  C         -1.9430   40.8200   -0.5040 C.2   229  LEU229      0.2260
    126  O         -2.9200   40.5620   -1.1410 O.2   229  LEU229     -0.2867
    127  CB        -0.1900   39.0410   -0.5610 C.3   229  LEU229      0.0270
    128  CG         0.8100   38.1900    0.1650 C.3   229  LEU229      0.0019
    129  CD1        1.6130   37.3540   -0.8540 C.3   229  LEU229      0.0001
    130  CD2        1.7490   39.0210    1.0310 C.3   229  LEU229      0.0001
    131  N          4.3960   45.7270   -1.6740 N.3   268  HIS268     -0.1241
    132  CA         3.3400   44.9050   -1.2050 C.3   268  HIS268      0.1621
    133  C          3.3240   44.8470    0.2990 C.2   268  HIS268      0.2264
    134  O          4.2950   45.2630    0.9470 O.2   268  HIS268     -0.2867
    135  CB         3.4630   43.4730   -1.8420 C.3   268  HIS268      0.0745
    136  CG         4.7670   42.8140   -1.6010 C.ar  268  HIS268      0.0817
    137  ND1        5.9280   43.1690   -2.2340 N.ar  268  HIS268     -0.2268
    138  CD2        5.0600   41.7540   -0.8210 C.ar  268  HIS268      0.1154
    139  CE1        6.9010   42.3750   -1.7970 C.ar  268  HIS268      0.1986
    140  NE2        6.4100   41.5210   -0.9200 N.ar  268  HIS268     -0.2212
    141  N          1.1460   42.7630    3.9150 N.3   270  VAL270     -0.1245
    142  CA         0.4940   41.5510    4.3930 C.3   270  VAL270      0.1561
    143  C         -0.6720   41.9990    5.3060 C.2   270  VAL270      0.2260
    144  O         -0.4520   42.6100    6.3670 O.2   270  VAL270     -0.2867
    145  CB         1.4310   40.6650    5.2010 C.3   270  VAL270      0.0252
    146  CG1        0.6820   39.4610    5.7770 C.3   270  VAL270      0.0019
    147  CG2        2.6290   40.1990    4.3520 C.3   270  VAL270      0.0019
    148  N          3.5430   30.9990    5.7360 N.3   279  SER279     -0.1217
    149  CA         4.1520   31.8030    4.6730 C.3   279  SER279      0.1889
    150  C          5.6030   31.3320    4.5420 C.2   279  SER279      0.2288
    151  O          6.3630   31.4530    5.5210 O.2   279  SER279     -0.2866
    152  CB         4.0640   33.2770    4.9740 C.3   279  SER279      0.2089
    153  OG         4.5990   34.0330    3.8590 O.3   279  SER279     -0.2183
    154  N          8.6140   31.7180    2.2490 N.3   281  PRO281     -0.2116
    155  CA         9.3970   32.2880    1.1790 C.3   281  PRO281      0.1372
    156  C         10.7620   31.6960    1.0060 C.2   281  PRO281      0.2244
    157  O         11.4180   31.3570    1.9760 O.2   281  PRO281     -0.2868
    158  CB         9.5190   33.7800    1.5490 C.3   281  PRO281      0.0268
    159  CG         9.4630   33.7170    3.0700 C.3   281  PRO281      0.0207
    160  CD         8.4640   32.6640    3.3780 C.3   281  PRO281      0.0892
    161  N         14.0400   33.3790   -0.6840 N.3   283  PHE283     -0.1241
    162  CA        14.5650   34.6090   -1.2290 C.3   283  PHE283      0.1605
    163  C         15.7450   34.2390   -2.0640 C.2   283  PHE283      0.2264
    164  O         16.7620   33.7750   -1.5320 O.2   283  PHE283     -0.2867
    165  CB        14.9390   35.5760   -0.0590 C.3   283  PHE283      0.0534
    166  CG        13.7650   36.0190    0.7460 C.ar  283  PHE283     -0.0203
    167  CD1       12.8300   36.8820    0.1760 C.ar  283  PHE283     -0.0042
    168  CD2       13.4880   35.5380    2.0000 C.ar  283  PHE283     -0.0042
    169  CE1       11.7110   37.3030    0.8860 C.ar  283  PHE283     -0.0003
    170  CE2       12.3530   35.9400    2.7260 C.ar  283  PHE283     -0.0003
    171  CZ        11.4840   36.8230    2.1610 C.ar  283  PHE283     -0.0000
    172  N         18.8360   34.8530   -3.6850 N.3   285  ASN285     -0.1240
    173  CA        20.0180   35.7660   -3.5490 C.3   285  ASN285      0.1653
    174  C         21.1350   35.1470   -4.3160 C.2   285  ASN285      0.2266
    175  O         21.2300   33.8900   -4.4250 O.2   285  ASN285     -0.2867
    176  CB        20.3870   35.8990   -2.0830 C.3   285  ASN285      0.1155
    177  CG        19.3450   36.6020   -1.2620 C.2   285  ASN285      0.2627
    178  OD1       18.7400   37.5630   -1.7590 O.2   285  ASN285     -0.2716
    179  ND2       19.1010   36.1710   -0.0260 N.am  285  ASN285     -0.0877
    180  N         18.9100   44.0690    4.2940 N.3   319  LEU319     -0.1245
    181  CA        18.2910   43.3300    5.4110 C.3   319  LEU319      0.1561
    182  C         18.2190   44.2150    6.6440 C.2   319  LEU319      0.2260
    183  O         17.1860   44.2230    7.3540 O.2   319  LEU319     -0.2867
    184  CB        19.0500   42.0340    5.6840 C.3   319  LEU319      0.0270
    185  CG        18.9500   40.9650    4.5680 C.3   319  LEU319      0.0019
    186  CD1       19.8240   39.7590    4.8400 C.3   319  LEU319      0.0001
    187  CD2       17.4630   40.5620    4.2960 C.3   319  LEU319      0.0001
    188  N         15.4220   46.9160    6.0280 N.3   322  LEU322     -0.1245
    189  CA        14.0530   46.4150    6.1720 C.3   322  LEU322      0.1561
    190  C         13.6890   46.2230    7.6400 C.2   322  LEU322      0.2260
    191  O         12.5480   46.4710    8.0540 O.2   322  LEU322     -0.2867
    192  CB        13.9030   45.1180    5.3860 C.3   322  LEU322      0.0270
    193  CG        12.4760   44.5400    5.3470 C.3   322  LEU322      0.0019
    194  CD1       11.4420   45.4970    4.7640 C.3   322  LEU322      0.0001
    195  CD2       12.5280   43.2030    4.5310 C.3   322  LEU322      0.0001
    196  N         11.4300   41.0090   12.8250 N.3   329  THR329     -0.1274
    197  CA        10.4660   39.9250   12.7120 C.3   329  THR329      0.1548
    198  C         10.8500   38.8160   13.6440 C.3   329  THR329      0.2036
    199  O         10.0640   37.8520   13.6360 O.3   329  THR329     -0.2187
    200  CB        10.3740   39.3630   11.2790 C.3   329  THR329      0.1721
    201  OG1       11.6470   38.8560   10.8680 O.3   329  THR329     -0.2215
    202  CG2        9.9210   40.5090   10.3010 C.3   329  THR329      0.0371
@<TRIPOS>BOND
     1   102   101    2
     2    99   100    1
     3   101   100    1
     4   175   174    2
     5   174   173    1
     6   100   103    1
     7   172   173    1
     8   173   176    1
     9   103   104    1
    10   103   105    1
    11   106   107    1
    12   109   108    2
    13    87    86    2
    14   137   139   ar
    15   137   136   ar
    16   108   107    1
    17   107   110    1
    18   176   177    1
    19   163   164    2
    20   163   162    1
    21    91    89   ar
    22   135   136    1
    23   135   132    1
    24   110   111    1
    25   139   140   ar
    26   178   177    2
    27    88    89    1
    28    88    85    1
    29   131   132    1
    30   136   138   ar
    31    84    85    1
    32    86    85    1
    33    86    92   am
    34   177   179   am
    35    89    90   ar
    36   162   161    1
    37   162   165    1
    38   132   133    1
    39   126   125    2
    40    94    93    1
    41    94    95    2
    42   140   138   ar
    43   129   128    1
    44   113   111    1
    45   111   112    1
    46    77    76    2
    47   127   128    1
    48   127   124    1
    49    93    92    1
    50    93    96    1
    51   125   124    1
    52   165   166    1
    53    76    75    1
    54   114   115    1
    55   128   130    1
    56   167   166   ar
    57   167   169   ar
    58   117   116    2
    59   133   134    2
    60   124   123    1
    61    97    96    1
    62   166   168   ar
    63    96    98    1
    64   169   171   ar
    65   121   120    2
    66   156   155    1
    67   156   157    2
    68   119   118    1
    69   119   120    1
    70    30    31    1
    71   155   158    1
    72   155   154    1
    73   118   115    1
    74   115   116    1
    75    33    32    2
    76    75    74    1
    77    75    78    1
    78   120   122   am
    79   158   159    1
    80    81    83   ar
    81    81    79   ar
    82    83    82   ar
    83   168   170   ar
    84   171   170   ar
    85   154   160    1
    86    79    78    1
    87    79    80   ar
    88    32    31    1
    89    82    80   ar
    90    31    34    1
    91    35    34    1
    92   159   160    1
    93    11     9    1
    94    10     9    1
    95   153   152    1
    96   141   142    1
    97     9     8    2
    98   180   181    1
    99   187   185    1
   100   147   145    1
   101   142   145    1
   102   142   143    1
   103   195   193    1
   104   150   149    1
   105   150   151    2
   106   185   186    1
   107   185   184    1
   108   149   152    1
   109   149   148    1
   110   194   193    1
   111    36    37    1
   112   145   146    1
   113   143   144    2
   114    39    38    2
   115   193   192    1
   116   192   189    1
   117   181   184    1
   118   181   182    1
   119     8     7    1
   120    42    40    1
   121    72    70   ar
   122    72    73   ar
   123    70    68   ar
   124    66    65    2
   125   188   189    1
   126    37    40    1
   127    37    38    1
   128    40    41    1
   129   189   190    1
   130     7     6    1
   131    50    48    1
   132   182   183    2
   133    73    71   ar
   134    65    64    1
   135    68    67    1
   136    68    69   ar
   137    67    64    1
   138    29    28    1
   139    48    47    1
   140   190   191    2
   141     6     5    1
   142    64    63    1
   143    60    58   ar
   144    60    61   ar
   145    71    69   ar
   146    43    44    1
   147    47    44    1
   148    47    49    1
   149    62    61    1
   150     5     2    1
   151    58    56   ar
   152    46    45    2
   153    61    59   ar
   154    26    25    1
   155    26    27    2
   156    28    25    1
   157    25    24    1
   158    44    45    1
   159    56    57   ar
   160    56    55    1
   161    59    57   ar
   162     2     3    1
   163     2     1    1
   164     4     3    2
   165    55    52    1
   166   202   200    1
   167    23    22    1
   168   201   200    1
   169    51    52    1
   170   200   197    1
   171    22    21   ar
   172    22    20   ar
   173    52    53    1
   174    54    53    2
   175    21    19   ar
   176    20    18   ar
   177    19    17   ar
   178   197   196    1
   179   197   198    1
   180    18    17   ar
   181    17    16    1
   182   199   198    1
   183    16    13    1
   184    12    13    1
   185    13    14    1
   186    15    14    2
