@<TRIPOS>MOLECULE
tmp/2jb5A00.pdb
 89 85 0 0 0
SMALL
GASTEIGER

@<TRIPOS>ATOM
      1  N         32.4940    3.9420   40.5850 N.3    30  TYR30      -0.1227
      2  CA        31.9810    5.1070   39.8820 C.3    30  TYR30       0.1736
      3  C         32.6480    6.3430   40.4500 C.2    30  TYR30       0.2595
      4  O         33.2830    6.2940   41.5080 O.2    30  TYR30      -0.2718
      5  CB        30.4760    5.2390   40.0400 C.3    30  TYR30       0.0548
      6  CG        29.6730    4.0990   39.4710 C.ar   30  TYR30      -0.0200
      7  CD1       28.8590    3.3280   40.2930 C.ar   30  TYR30      -0.0009
      8  CD2       29.6900    3.8160   38.1150 C.ar   30  TYR30      -0.0009
      9  CE1       28.0840    2.3120   39.7860 C.ar   30  TYR30       0.0417
     10  CE2       28.9100    2.7920   37.5890 C.ar   30  TYR30       0.0417
     11  CZ        28.1060    2.0450   38.4360 C.ar   30  TYR30       0.1957
     12  OH        27.3000    1.0400   37.9400 O.3    30  TYR30      -0.2866
     13  N         32.4850    7.4520   39.7390 N.am   31  ALA31      -0.1980
     14  CA        33.0800    8.7260   40.1110 C.3    31  ALA31       0.1597
     15  C         32.6220    9.2860   41.4380 C.2    31  ALA31       0.2287
     16  O         31.5800    8.9120   41.9710 O.2    31  ALA31      -0.2864
     17  CB        32.8120    9.7430   39.0220 C.3    31  ALA31       0.0319
     18  N         31.2830   12.4200   43.0020 N.3    33  ASN33      -0.1240
     19  CA        30.6420   13.6510   42.5860 C.3    33  ASN33       0.1653
     20  C         30.6140   14.6950   43.7030 C.2    33  ASN33       0.2266
     21  O         30.5680   14.3580   44.8860 O.2    33  ASN33      -0.2867
     22  CB        29.2220   13.3470   42.0980 C.3    33  ASN33       0.1155
     23  CG        29.2070   12.6640   40.7420 C.2    33  ASN33       0.2627
     24  OD1       29.0140   13.3070   39.7090 O.2    33  ASN33      -0.2716
     25  ND2       29.4230   11.3560   40.7380 N.am   33  ASN33      -0.0877
     26  N         32.9890   16.0310   38.9720 N.3    48  ASN48      -0.1240
     27  CA        33.3630   14.7540   39.5640 C.3    48  ASN48       0.1653
     28  C         34.7410   14.3240   39.0570 C.2    48  ASN48       0.2266
     29  O         35.3980   15.0510   38.2940 O.2    48  ASN48      -0.2867
     30  CB        32.3190   13.6730   39.2300 C.3    48  ASN48       0.1155
     31  CG        32.2270   13.3770   37.7340 C.2    48  ASN48       0.2627
     32  OD1       33.1250   13.7000   36.9650 O.2    48  ASN48      -0.2716
     33  ND2       31.1390   12.7420   37.3250 N.am   48  ASN48      -0.0877
     34  N         36.6740   10.4910   37.8560 N.3    50  GLU50      -0.1245
     35  CA        36.7080    9.0370   37.7240 C.3    50  GLU50       0.1567
     36  C         38.0920    8.6420   38.2210 C.2    50  GLU50       0.2260
     37  O         39.0960    8.9420   37.5890 O.2    50  GLU50      -0.2867
     38  CB        36.5320    8.6090   36.2620 C.3    50  GLU50       0.0388
     39  CG        35.1130    8.7270   35.6970 C.3    50  GLU50       0.1160
     40  CD        34.9460    9.8940   34.7280 C.2    50  GLU50       0.3649
     41  OE1       34.8380   11.0510   35.1870 O.co2  50  GLU50      -0.2457
     42  OE2       34.9300    9.6540   33.5000 O.co2  50  GLU50      -0.2457
     43  N         27.5230    6.8650   43.0340 N.3    97  TYR97      -0.1241
     44  CA        26.5250    5.8650   42.7010 C.3    97  TYR97       0.1605
     45  C         27.0470    4.4580   43.0100 C.2    97  TYR97       0.2264
     46  O         28.2190    4.2640   43.2750 O.2    97  TYR97      -0.2867
     47  CB        26.1960    5.9400   41.2110 C.3    97  TYR97       0.0534
     48  CG        25.4420    7.1720   40.7630 C.ar   97  TYR97      -0.0201
     49  CD1       26.0490    8.1280   39.9710 C.ar   97  TYR97      -0.0009
     50  CD2       24.1070    7.3510   41.0930 C.ar   97  TYR97      -0.0009
     51  CE1       25.3470    9.2250   39.5150 C.ar   97  TYR97       0.0417
     52  CE2       23.4000    8.4460   40.6440 C.ar   97  TYR97       0.0417
     53  CZ        24.0200    9.3780   39.8520 C.ar   97  TYR97       0.1957
     54  OH        23.3040   10.4540   39.3710 O.3    97  TYR97      -0.2866
     55  N         25.7490   -0.1190   42.7520 N.3    99  MET99      -0.1245
     56  CA        24.7820   -1.1910   42.5760 C.3    99  MET99       0.1570
     57  C         24.5170   -1.8550   43.9030 C.2    99  MET99       0.2261
     58  O         25.4370   -2.3640   44.5320 O.2    99  MET99      -0.2867
     59  CB        25.3360   -2.2300   41.6180 C.3    99  MET99       0.0387
     60  CG        25.7620   -1.6340   40.3130 C.3    99  MET99       0.0595
     61  SD        24.4710   -0.5010   39.8230 S.3    99  MET99      -0.1393
     62  CE        23.0890   -1.6740   39.5350 C.3    99  MET99       0.0692
     63  N         20.9240   -5.1090   41.7990 N.3   102  LYS102     -0.1231
     64  CA        20.5500   -5.0210   40.3900 C.3   102  LYS102      0.1693
     65  C         19.8000   -3.7070   40.1260 C.2   102  LYS102      0.2592
     66  O         19.2280   -3.5010   39.0460 O.2   102  LYS102     -0.2718
     67  CB        19.6880   -6.2240   40.0090 C.3   102  LYS102      0.0285
     68  CG        20.4110   -7.5540   40.1800 C.3   102  LYS102      0.0035
     69  CD        19.5160   -8.7430   39.8580 C.3   102  LYS102      0.0206
     70  CE        20.2990  -10.0470   39.9380 C.3   102  LYS102      0.1093
     71  NZ        19.4500  -11.2400   39.6420 N.3   102  LYS102     -0.1314
     72  N         19.8270   -2.8310   41.1350 N.am  103  HIS103     -0.1962
     73  CA        19.1900   -1.5190   41.1050 C.3   103  HIS103      0.1787
     74  C         20.1990   -0.4590   41.5370 C.2   103  HIS103      0.2620
     75  O         21.0090   -0.6930   42.4320 O.2   103  HIS103     -0.2715
     76  CB        18.0160   -1.4600   42.0830 C.3   103  HIS103      0.0785
     77  CG        16.8040   -2.2190   41.6420 C.ar  103  HIS103      0.0821
     78  ND1       16.1680   -1.9730   40.4440 N.ar  103  HIS103     -0.2267
     79  CD2       16.0780   -3.1740   42.2670 C.ar  103  HIS103      0.1154
     80  CE1       15.1000   -2.7430   40.3520 C.ar  103  HIS103      0.1986
     81  NE2       15.0210   -3.4810   41.4440 N.ar  103  HIS103     -0.2212
     82  N         20.1230    0.7150   40.9200 N.am  104  LEU104     -0.1977
     83  CA        21.0160    1.8160   41.2450 C.3   104  LEU104      0.1596
     84  C         20.6440    2.4670   42.5780 C.2   104  LEU104      0.2287
     85  O         19.5320    2.3110   43.0790 O.2   104  LEU104     -0.2864
     86  CB        20.9690    2.8710   40.1380 C.3   104  LEU104      0.0297
     87  CG        21.8550    4.1060   40.3460 C.3   104  LEU104      0.0022
     88  CD1       23.3080    3.6850   40.3520 C.3   104  LEU104      0.0001
     89  CD2       21.6090    5.1330   39.2500 C.3   104  LEU104      0.0001
@<TRIPOS>BOND
     1    42    40   ar
     2    40    41   ar
     3    40    39    1
     4    39    38    1
     5    38    35    1
     6    32    31    2
     7    33    31   am
     8    10     8   ar
     9    10    11   ar
    10    37    36    2
    11    35    34    1
    12    35    36    1
    13    31    30    1
    14    12    11    1
    15     8     6   ar
    16    29    28    2
    17    11     9   ar
    18    26    27    1
    19    17    14    1
    20    66    65    2
    21    28    27    1
    22    30    27    1
    23    89    87    1
    24    54    53    1
    25     6     5    1
    26     6     7   ar
    27    51    53   ar
    28    51    49   ar
    29    62    61    1
    30    71    70    1
    31    24    23    2
    32    13    14    1
    33    13     3   am
    34     9     7   ar
    35    61    60    1
    36    53    52   ar
    37    69    70    1
    38    69    68    1
    39     2     5    1
    40     2     3    1
    41     2     1    1
    42    49    48   ar
    43    67    68    1
    44    67    64    1
    45    14    15    1
    46    65    64    1
    47    65    72   am
    48    86    87    1
    49    86    83    1
    50    60    59    1
    51    87    88    1
    52    80    78   ar
    53    80    81   ar
    54    64    63    1
    55    78    77   ar
    56     3     4    2
    57    52    50   ar
    58    25    23   am
    59    23    22    1
    60    48    50   ar
    61    48    47    1
    62    82    83    1
    63    82    74   am
    64    73    72    1
    65    73    74    1
    66    73    76    1
    67    47    44    1
    68    83    84    1
    69    15    16    2
    70    81    79   ar
    71    74    75    2
    72    59    56    1
    73    77    76    1
    74    77    79   ar
    75    22    19    1
    76    56    55    1
    77    56    57    1
    78    84    85    2
    79    19    18    1
    80    19    20    1
    81    44    45    1
    82    44    43    1
    83    45    46    2
    84    20    21    2
    85    57    58    2
