@<TRIPOS>MOLECULE
tmp/2jb5B00.pdb
 90 87 0 0 0
SMALL
GASTEIGER

@<TRIPOS>ATOM
      1  N         18.6320    9.6990   31.2240 N.3    32  TYR32      -0.1227
      2  CA        19.4040    9.9530   32.4350 C.3    32  TYR32       0.1736
      3  C         18.7750   11.1070   33.2200 C.2    32  TYR32       0.2595
      4  O         19.2950   12.2340   33.2370 O.2    32  TYR32      -0.2718
      5  CB        20.8710   10.2800   32.1030 C.3    32  TYR32       0.0548
      6  CG        21.6210    9.1380   31.4600 C.ar   32  TYR32      -0.0200
      7  CD1       21.4210    7.8310   31.8950 C.ar   32  TYR32      -0.0009
      8  CD2       22.5160    9.3550   30.4100 C.ar   32  TYR32      -0.0009
      9  CE1       22.0750    6.7710   31.3100 C.ar   32  TYR32       0.0417
     10  CE2       23.1820    8.2940   29.8150 C.ar   32  TYR32       0.0417
     11  CZ        22.9490    7.0010   30.2730 C.ar   32  TYR32       0.1957
     12  OH        23.5690    5.9200   29.6880 O.3    32  TYR32      -0.2866
     13  N         17.6410   10.8180   33.8520 N.am   33  VAL33      -0.1966
     14  CA        16.9470   11.8020   34.6660 C.3    33  VAL33       0.1727
     15  C         16.5440   11.1140   35.9720 C.2    33  VAL33       0.2616
     16  O         16.0610    9.9760   35.9660 O.2    33  VAL33      -0.2715
     17  CB        15.7090   12.3830   33.9260 C.3    33  VAL33       0.0290
     18  CG1       15.8140   12.0880   32.4510 C.3    33  VAL33       0.0023
     19  CG2       14.4280   11.8310   34.4990 C.3    33  VAL33       0.0023
     20  N         16.7660   11.8000   37.0920 N.am   34  SER34      -0.1950
     21  CA        16.4560   11.2420   38.4000 C.3    34  SER34       0.1924
     22  C         15.7580   12.2400   39.3050 C.2    34  SER34       0.2314
     23  O         15.7230   13.4430   39.0280 O.2    34  SER34      -0.2863
     24  CB        17.7430   10.7750   39.0750 C.3    34  SER34       0.2116
     25  OG        18.7360   11.7920   39.0050 O.3    34  SER34      -0.2180
     26  N         18.0070    9.5020   46.7450 N.3    46  LEU46      -0.1245
     27  CA        17.6380    9.1740   45.3680 C.3    46  LEU46       0.1561
     28  C         16.3060    8.4450   45.3820 C.2    46  LEU46       0.2260
     29  O         16.1820    7.4190   46.0300 O.2    46  LEU46      -0.2867
     30  CB        18.7070    8.2790   44.7380 C.3    46  LEU46       0.0270
     31  CG        18.5640    7.9350   43.2550 C.3    46  LEU46       0.0019
     32  CD1       18.6070    9.1990   42.3960 C.3    46  LEU46       0.0001
     33  CD2       19.6880    7.0060   42.8580 C.3    46  LEU46       0.0001
     34  N         15.5050    6.8880   39.3370 N.3    49  TYR49      -0.1227
     35  CA        16.6860    7.0480   38.5030 C.3    49  TYR49       0.1736
     36  C         16.4080    6.5550   37.1030 C.2    49  TYR49       0.2596
     37  O         15.4410    5.8300   36.8660 O.2    49  TYR49      -0.2718
     38  CB        17.9020    6.3280   39.0950 C.3    49  TYR49       0.0548
     39  CG        17.8380    4.8260   39.0700 C.ar   49  TYR49      -0.0200
     40  CD1       17.3580    4.1070   40.1630 C.ar   49  TYR49      -0.0009
     41  CD2       18.2340    4.1190   37.9390 C.ar   49  TYR49      -0.0009
     42  CE1       17.2710    2.7200   40.1250 C.ar   49  TYR49       0.0417
     43  CE2       18.1490    2.7390   37.8920 C.ar   49  TYR49       0.0417
     44  CZ        17.6670    2.0480   38.9850 C.ar   49  TYR49       0.1957
     45  OH        17.5860    0.6800   38.9220 O.3    49  TYR49      -0.2866
     46  N         17.2470    6.9650   36.1630 N.am   50  GLY50      -0.1957
     47  CA        17.0340    6.5560   34.7910 C.3    50  GLY50       0.1869
     48  C         15.5780    6.6940   34.3770 C.2    50  GLY50       0.2309
     49  O         14.9830    5.7590   33.8510 O.2    50  GLY50      -0.2863
     50  N         13.0220    3.9960   36.9480 N.3    53  ASN53      -0.1240
     51  CA        13.4270    2.9490   37.8770 C.3    53  ASN53       0.1653
     52  C         13.5630    3.5160   39.2910 C.2    53  ASN53       0.2266
     53  O         13.9970    4.6530   39.4690 O.2    53  ASN53      -0.2867
     54  CB        14.7600    2.3490   37.4320 C.3    53  ASN53       0.1155
     55  CG        14.8120    2.0870   35.9350 C.2    53  ASN53       0.2627
     56  OD1       13.9930    1.3470   35.3970 O.2    53  ASN53      -0.2716
     57  ND2       15.7790    2.6970   35.2550 N.am   53  ASN53      -0.0877
     58  N         17.2330   15.6240   38.3600 N.3    89  ARG89      -0.1245
     59  CA        18.6160   15.6710   37.9190 C.3    89  ARG89       0.1563
     60  C         18.7870   15.1290   36.5150 C.2    89  ARG89       0.2260
     61  O         18.1450   14.1500   36.1200 O.2    89  ARG89      -0.2867
     62  CB        19.4800   14.8640   38.8970 C.3    89  ARG89       0.0307
     63  CG        20.9410   14.8540   38.5680 C.3    89  ARG89       0.0489
     64  CD        21.7310   14.1240   39.6380 C.3    89  ARG89       0.2205
     65  NE        23.1600   14.3870   39.5040 N.pl3  89  ARG89      -0.0865
     66  CZ        24.0790   13.9730   40.3660 C.cat  89  ARG89       0.5346
     67  NH1       25.3550   14.2680   40.1650 N.pl3  89  ARG89       0.1354
     68  NH2       23.7290   13.2600   41.4270 N.pl3  89  ARG89       0.1354
     69  N         21.7250   14.1250   33.3510 N.3    91  TRP91      -0.1241
     70  CA        23.1000   13.7980   32.9890 C.3    91  TRP91       0.1605
     71  C         23.2010   13.8300   31.4780 C.2    91  TRP91       0.2264
     72  O         22.3860   13.2080   30.7990 O.2    91  TRP91      -0.2867
     73  CB        23.4730   12.3900   33.4500 C.3    91  TRP91       0.0550
     74  CG        23.9580   12.3080   34.8430 C.ar   91  TRP91       0.0003
     75  CD1       23.2790   11.8230   35.9210 C.ar   91  TRP91       0.0946
     76  CD2       25.2510   12.6980   35.3230 C.ar   91  TRP91       0.0152
     77  NE1       24.0740   11.8840   37.0470 N.ar   91  TRP91      -0.2442
     78  CE2       25.2870   12.4190   36.7040 C.ar   91  TRP91       0.0810
     79  CE3       26.3800   13.2550   34.7190 C.ar   91  TRP91       0.0012
     80  CZ2       26.4060   12.6790   37.4880 C.ar   91  TRP91       0.0191
     81  CZ3       27.4920   13.5120   35.5030 C.ar   91  TRP91       0.0001
     82  CH2       27.4980   13.2250   36.8700 C.ar   91  TRP91       0.0015
     83  N         27.7760   11.4970   30.3270 N.3    95  LEU95      -0.1245
     84  CA        27.9650   11.3340   31.7650 C.3    95  LEU95       0.1561
     85  C         29.2040   12.1170   32.1820 C.2    95  LEU95       0.2260
     86  O         30.0320   11.6320   32.9390 O.2    95  LEU95      -0.2867
     87  CB        28.1240    9.8510   32.1480 C.3    95  LEU95       0.0270
     88  CG        26.9650    8.8950   31.8170 C.3    95  LEU95       0.0019
     89  CD1       27.1560    7.6010   32.5650 C.3    95  LEU95       0.0001
     90  CD2       25.6270    9.5050   32.2120 C.3    95  LEU95       0.0001
@<TRIPOS>BOND
     1    12    11    1
     2    10    11   ar
     3    10     8   ar
     4    11     9   ar
     5    83    84    1
     6     8     6   ar
     7    72    71    2
     8     1     2    1
     9     9     7   ar
    10     6     7   ar
    11     6     5    1
    12    71    70    1
    13    84    87    1
    14    84    85    1
    15    88    87    1
    16    88    90    1
    17    88    89    1
    18     5     2    1
    19    85    86    2
    20     2     3    1
    21    18    17    1
    22    70    69    1
    23    70    73    1
    24     3     4    2
    25     3    13   am
    26    73    74    1
    27    49    48    2
    28    13    14    1
    29    17    19    1
    30    17    14    1
    31    48    47    1
    32    14    15    1
    33    79    76   ar
    34    79    81   ar
    35    47    46    1
    36    74    76   ar
    37    74    75   ar
    38    57    55   am
    39    76    78   ar
    40    56    55    2
    41    81    82   ar
    42    75    77   ar
    43    55    54    1
    44    16    15    2
    45    15    20   am
    46    61    60    2
    47    46    36   am
    48    60    59    1
    49    78    77   ar
    50    78    80   ar
    51    37    36    2
    52    82    80   ar
    53    50    51    1
    54    20    21    1
    55    36    35    1
    56    54    51    1
    57    51    52    1
    58    43    41   ar
    59    43    44   ar
    60    59    58    1
    61    59    62    1
    62    41    39   ar
    63    21    24    1
    64    21    22    1
    65    35    38    1
    66    35    34    1
    67    63    62    1
    68    63    64    1
    69    45    44    1
    70    44    42   ar
    71    25    24    1
    72    23    22    2
    73    39    38    1
    74    39    40   ar
    75    52    53    2
    76    65    64    1
    77    65    66    2
    78    42    40   ar
    79    67    66    1
    80    66    68    1
    81    32    31    1
    82    33    31    1
    83    31    30    1
    84    30    27    1
    85    27    28    1
    86    27    26    1
    87    28    29    2
