@<TRIPOS>MOLECULE
tmp/2jb7A00.pdb
 92 91 0 0 0
SMALL
GASTEIGER

@<TRIPOS>ATOM
      1  N         56.4490   22.3850   12.0960 N.3    16  ASN16      -0.1240
      2  CA        55.6790   21.7090   11.0890 C.3    16  ASN16       0.1653
      3  C         54.6880   20.7710   11.7410 C.2    16  ASN16       0.2266
      4  O         54.9050   20.3130   12.8610 O.2    16  ASN16      -0.2867
      5  CB        56.5490   20.9460   10.1110 C.3    16  ASN16       0.1155
      6  CG        57.2450   21.8450    9.1370 C.2    16  ASN16       0.2627
      7  OD1       58.2850   22.4580    9.4570 O.2    16  ASN16      -0.2716
      8  ND2       56.6760   21.9480    7.9540 N.am   16  ASN16      -0.0877
      9  N         62.5020   18.6370    9.5960 N.3    91  TRP91      -0.1228
     10  CA        61.4740   18.7860    8.5790 C.3    91  TRP91       0.1722
     11  C         60.6590   17.5200    8.3970 C.2    91  TRP91       0.2437
     12  O         61.1790   16.4180    8.6010 O.2    91  TRP91      -0.2733
     13  CB        62.1220   19.0730    7.2390 C.3    91  TRP91       0.0563
     14  CG        62.9310   20.3260    7.2110 C.ar   91  TRP91       0.0003
     15  CD1       64.3100   20.4070    7.2280 C.ar   91  TRP91       0.0946
     16  CD2       62.4380   21.6580    7.1480 C.ar   91  TRP91       0.0152
     17  NE1       64.6890   21.7380    7.1580 N.ar   91  TRP91      -0.2442
     18  CE2       63.5670   22.5210    7.1080 C.ar   91  TRP91       0.0810
     19  CE3       61.1670   22.2190    7.1100 C.ar   91  TRP91       0.0012
     20  CZ2       63.4400   23.8950    7.0160 C.ar   91  TRP91       0.0191
     21  CZ3       61.0400   23.6070    6.9930 C.ar   91  TRP91       0.0001
     22  CH2       62.1870   24.4180    6.9770 C.ar   91  TRP91       0.0015
     23  N         59.3930   17.6520    7.9370 N.am   92  PRO92      -0.2718
     24  CA        58.6700   16.4190    7.6270 C.3    92  PRO92       0.1535
     25  C         59.4000   15.4510    6.7120 C.2    92  PRO92       0.2598
     26  O         59.3180   14.2630    6.9430 O.2    92  PRO92      -0.2715
     27  CB        57.3500   16.9230    7.0090 C.3    92  PRO92       0.0310
     28  CG        57.1260   18.2200    7.6990 C.3    92  PRO92       0.0237
     29  CD        58.5160   18.8300    7.8190 C.3    92  PRO92       0.0939
     30  N         60.1650   15.9180    5.7270 N.am   93  ILE93      -0.1978
     31  CA        60.8350   14.9600    4.8370 C.3    93  ILE93       0.1596
     32  C         61.8860   14.1330    5.6090 C.2    93  ILE93       0.2287
     33  O         62.3130   13.0710    5.1410 O.2    93  ILE93      -0.2864
     34  CB        61.5350   15.6290    3.6100 C.3    93  ILE93       0.0276
     35  CG1       62.5730   16.6800    4.0290 C.3    93  ILE93       0.0022
     36  CG2       60.4780   16.2030    2.6140 C.3    93  ILE93       0.0022
     37  CD1       63.4210   17.1660    2.8150 C.3    93  ILE93       0.0001
     38  N         51.2840   17.0380    5.6890 N.3   111  ALA111     -0.1231
     39  CA        52.5590   17.3430    6.3200 C.3   111  ALA111      0.1694
     40  C         52.9350   18.7540    5.8310 C.2   111  ALA111      0.2593
     41  O         53.1730   18.9320    4.6430 O.2   111  ALA111     -0.2718
     42  CB        53.5860   16.3260    5.9580 C.3   111  ALA111      0.0304
     43  N         52.9470   19.7460    6.7290 N.am  112  THR112     -0.1939
     44  CA        52.9600   21.1210    6.2570 C.3   112  THR112      0.2028
     45  C         53.2160   22.1150    7.3630 C.2   112  THR112      0.2642
     46  O         53.0160   21.8040    8.5500 O.2   112  THR112     -0.2714
     47  CB        51.6080   21.4740    5.5970 C.3   112  THR112      0.1808
     48  OG1       51.7390   22.6570    4.7830 O.3   112  THR112     -0.2208
     49  CG2       50.5360   21.6930    6.6250 C.3   112  THR112      0.0379
     50  N         53.6640   23.3190    6.9750 N.am  113  ALA113     -0.1963
     51  CA        53.7300   24.4550    7.8850 C.3   113  ALA113      0.1728
     52  C         52.8720   25.6190    7.3520 C.2   113  ALA113      0.2616
     53  O         52.8930   26.6910    7.9240 O.2   113  ALA113     -0.2715
     54  CB        55.1860   24.9060    8.0850 C.3   113  ALA113      0.0334
     55  N         52.0900   25.3720    6.3010 N.am  114  ASN114     -0.1972
     56  CA        51.1180   26.3290    5.7540 C.3   114  ASN114      0.1688
     57  C         49.8930   26.5090    6.6090 C.2   114  ASN114      0.2292
     58  O         49.5590   25.6310    7.4060 O.2   114  ASN114     -0.2864
     59  CB        50.6120   25.8620    4.3920 C.3   114  ASN114      0.1181
     60  CG        51.6660   25.8930    3.3350 C.2   114  ASN114      0.2629
     61  OD1       52.5890   26.7030    3.3740 O.2   114  ASN114     -0.2716
     62  ND2       51.4980   25.0670    2.3460 N.am  114  ASN114     -0.0877
     63  N         67.4350   27.2620   -6.0260 N.3   154  PHE154     -0.1241
     64  CA        67.1220   27.2400   -4.6030 C.3   154  PHE154      0.1605
     65  C         67.5460   25.9090   -4.0200 C.2   154  PHE154      0.2264
     66  O         68.2190   25.8440   -2.9790 O.2   154  PHE154     -0.2867
     67  CB        65.6260   27.4430   -4.3980 C.3   154  PHE154      0.0534
     68  CG        65.1850   27.2210   -3.0060 C.ar  154  PHE154     -0.0203
     69  CD1       65.5260   28.1120   -2.0130 C.ar  154  PHE154     -0.0042
     70  CD2       64.4190   26.1180   -2.6780 C.ar  154  PHE154     -0.0042
     71  CE1       65.1350   27.8970   -0.7060 C.ar  154  PHE154     -0.0003
     72  CE2       64.0230   25.9120   -1.3600 C.ar  154  PHE154     -0.0003
     73  CZ        64.3780   26.8040   -0.3890 C.ar  154  PHE154     -0.0000
     74  N         69.3230   25.3580   -0.0690 N.3   159  VAL159     -0.1245
     75  CA        69.0770   24.2050    0.8270 C.3   159  VAL159      0.1561
     76  C         69.9810   23.0070    0.5020 C.2   159  VAL159      0.2260
     77  O         70.1590   22.1110    1.3340 O.2   159  VAL159     -0.2867
     78  CB        67.5790   23.7990    0.9020 C.3   159  VAL159      0.0252
     79  CG1       66.7710   24.8530    1.6700 C.3   159  VAL159      0.0019
     80  CG2       66.9680   23.5850   -0.4570 C.3   159  VAL159      0.0019
     81  N         69.8160   20.4300   -1.3560 N.3   161  TYR161     -0.1241
     82  CA        69.2310   19.0890   -1.4380 C.3   161  TYR161      0.1605
     83  C         69.4690   18.3750   -2.7610 C.2   161  TYR161      0.2264
     84  O         69.2080   17.1560   -2.8790 O.2   161  TYR161     -0.2867
     85  CB        67.7130   19.1460   -1.1790 C.3   161  TYR161      0.0534
     86  CG        67.2890   19.4880    0.2350 C.ar  161  TYR161     -0.0201
     87  CD1       68.0660   19.1690    1.3430 C.ar  161  TYR161     -0.0009
     88  CD2       66.0760   20.1140    0.4630 C.ar  161  TYR161     -0.0009
     89  CE1       67.6120   19.4620    2.6290 C.ar  161  TYR161      0.0417
     90  CE2       65.6270   20.4170    1.7490 C.ar  161  TYR161      0.0417
     91  CZ        66.4030   20.0850    2.8260 C.ar  161  TYR161      0.1957
     92  OH        65.9490   20.3990    4.0990 O.3   161  TYR161     -0.2866
@<TRIPOS>BOND
     1    63    64    1
     2    64    67    1
     3    64    65    1
     4    67    68    1
     5    65    66    2
     6    68    70   ar
     7    68    69   ar
     8    84    83    2
     9    83    82    1
    10    70    72   ar
    11    69    71   ar
    12    82    81    1
    13    82    85    1
    14    72    73   ar
    15    85    86    1
    16    71    73   ar
    17    80    78    1
    18    74    75    1
    19    86    88   ar
    20    86    87   ar
    21    88    90   ar
    22    76    75    1
    23    76    77    2
    24    75    78    1
    25    78    79    1
    26    87    89   ar
    27    90    91   ar
    28    62    60   am
    29    36    34    1
    30    89    91   ar
    31    37    35    1
    32    91    92    1
    33    60    61    2
    34    60    59    1
    35    34    35    1
    36    34    31    1
    37    59    56    1
    38    41    40    2
    39    48    47    1
    40    31    32    1
    41    31    30    1
    42    33    32    2
    43    47    44    1
    44    47    49    1
    45    38    39    1
    46    30    25   am
    47    56    55    1
    48    56    57    1
    49    40    39    1
    50    40    43   am
    51    42    39    1
    52    44    43    1
    53    44    45    1
    54    55    52   am
    55    57    58    2
    56    25    26    2
    57    25    24    1
    58    50    45   am
    59    50    51    1
    60    22    21   ar
    61    22    20   ar
    62    21    19   ar
    63    27    24    1
    64    27    28    1
    65    20    18   ar
    66    18    16   ar
    67    18    17   ar
    68    19    16   ar
    69    16    14   ar
    70    17    15   ar
    71    14    15   ar
    72    14    13    1
    73    13    10    1
    74    52    51    1
    75    52    53    2
    76    45    46    2
    77    24    23    1
    78    28    29    1
    79    29    23    1
    80    51    54    1
    81    23    11   am
    82     8     6   am
    83    11    10    1
    84    11    12    2
    85    10     9    1
    86     6     7    2
    87     6     5    1
    88     5     2    1
    89     2     3    1
    90     2     1    1
    91     3     4    2
