@<TRIPOS>MOLECULE
tmp/2jb7A01.pdb
 76 73 0 0 0
SMALL
GASTEIGER

@<TRIPOS>ATOM
      1  N         55.6190   29.6520   14.2730 N.3    13  GLN13      -0.1231
      2  CA        56.7850   29.7640   13.4200 C.3    13  GLN13       0.1698
      3  C         57.8620   28.7810   13.8540 C.2    13  GLN13       0.2593
      4  O         58.1130   28.5910   15.0540 O.2    13  GLN13      -0.2718
      5  CB        57.3360   31.1970   13.4370 C.3    13  GLN13       0.0381
      6  CG        58.4510   31.4610   12.4090 C.3    13  GLN13       0.0905
      7  CD        58.1160   30.9810   10.9880 C.2    13  GLN13       0.2608
      8  OE1       57.0080   31.1930   10.4790 O.2    13  GLN13      -0.2717
      9  NE2       59.0940   30.3410   10.3350 N.am   13  GLN13      -0.0878
     10  N         58.5030   28.1430   12.8760 N.am   14  GLY14      -0.1942
     11  CA        59.4970   27.1310   13.1730 C.3    14  GLY14       0.2014
     12  C         58.9840   25.7260   13.4080 C.2    14  GLY14       0.2640
     13  O         59.7930   24.7950   13.6290 O.2    14  GLY14      -0.2714
     14  N         57.6740   25.5550   13.3980 N.am   15  THR15      -0.1936
     15  CA        57.1160   24.2020   13.5180 C.3    15  THR15       0.2028
     16  C         56.5720   23.7160   12.1740 C.2    15  THR15       0.2642
     17  O         56.2310   24.5170   11.2600 O.2    15  THR15      -0.2714
     18  CB        56.0170   24.0950   14.6020 C.3    15  THR15       0.1808
     19  OG1       54.8050   24.7220   14.1630 O.3    15  THR15      -0.2208
     20  CG2       56.4750   24.7140   15.9350 C.3    15  THR15       0.0379
     21  N         56.4490   22.3850   12.0960 N.am   16  ASN16      -0.1971
     22  CA        55.6790   21.7090   11.0890 C.3    16  ASN16       0.1688
     23  C         54.6880   20.7710   11.7410 C.2    16  ASN16       0.2292
     24  O         54.9050   20.3130   12.8610 O.2    16  ASN16      -0.2864
     25  CB        56.5490   20.9460   10.1110 C.3    16  ASN16       0.1181
     26  CG        57.2450   21.8450    9.1370 C.2    16  ASN16       0.2629
     27  OD1       58.2850   22.4580    9.4570 O.2    16  ASN16      -0.2716
     28  ND2       56.6760   21.9480    7.9540 N.am   16  ASN16      -0.0877
     29  N         56.5660   19.2060   15.1200 N.3    87  ILE87      -0.1245
     30  CA        58.0140   19.0770   15.1770 C.3    87  ILE87       0.1561
     31  C         58.7510   20.4120   15.0030 C.2    87  ILE87       0.2260
     32  O         58.3550   21.2720   14.2090 O.2    87  ILE87      -0.2867
     33  CB        58.5930   18.0920   14.1220 C.3    87  ILE87       0.0252
     34  CG1       58.0970   18.3850   12.6980 C.3    87  ILE87       0.0019
     35  CG2       58.3350   16.5860   14.4970 C.3    87  ILE87       0.0019
     36  CD1       58.7140   17.5110   11.6530 C.3    87  ILE87       0.0001
     37  N         63.1220   21.6250   14.6940 N.3    89  ASN89      -0.1225
     38  CA        64.4990   21.1170   14.5030 C.3    89  ASN89       0.1785
     39  C         64.5830   19.9020   13.5910 C.2    89  ASN89       0.2597
     40  O         65.5740   19.1660   13.5620 O.2    89  ASN89      -0.2718
     41  CB        65.2180   20.8350   15.8470 C.3    89  ASN89       0.1169
     42  CG        65.1960   22.0290   16.7600 C.2    89  ASN89       0.2627
     43  OD1       65.1590   23.1950   16.3180 O.2    89  ASN89      -0.2716
     44  ND2       65.2510   21.7620   18.0530 N.am   89  ASN89      -0.0877
     45  N         63.5270   19.7260   12.8000 N.am   90  ALA90      -0.1966
     46  CA        63.4740   18.7120   11.7890 C.3    90  ALA90       0.1728
     47  C         62.3640   19.0760   10.8340 C.2    90  ALA90       0.2616
     48  O         61.4040   19.7450   11.2090 O.2    90  ALA90      -0.2715
     49  CB        63.1930   17.3000   12.4240 C.3    90  ALA90       0.0334
     50  N         62.5020   18.6370    9.5960 N.am   91  TRP91      -0.1974
     51  CA        61.4740   18.7860    8.5790 C.3    91  TRP91       0.1640
     52  C         60.6590   17.5200    8.3970 C.2    91  TRP91       0.2290
     53  O         61.1790   16.4180    8.6010 O.2    91  TRP91      -0.2864
     54  CB        62.1220   19.0730    7.2390 C.3    91  TRP91       0.0576
     55  CG        62.9310   20.3260    7.2110 C.ar   91  TRP91       0.0006
     56  CD1       64.3100   20.4070    7.2280 C.ar   91  TRP91       0.0946
     57  CD2       62.4380   21.6580    7.1480 C.ar   91  TRP91       0.0152
     58  NE1       64.6890   21.7380    7.1580 N.ar   91  TRP91      -0.2442
     59  CE2       63.5670   22.5210    7.1080 C.ar   91  TRP91       0.0810
     60  CE3       61.1670   22.2190    7.1100 C.ar   91  TRP91       0.0012
     61  CZ2       63.4400   23.8950    7.0160 C.ar   91  TRP91       0.0191
     62  CZ3       61.0400   23.6070    6.9930 C.ar   91  TRP91       0.0001
     63  CH2       62.1870   24.4180    6.9770 C.ar   91  TRP91       0.0015
     64  N         62.3260   14.6360    6.7570 N.3    94  ASN94      -0.1240
     65  CA        63.2850   13.9230    7.5710 C.3    94  ASN94       0.1653
     66  C         62.6710   12.7370    8.2940 C.2    94  ASN94       0.2266
     67  O         63.4060   11.8450    8.6960 O.2    94  ASN94      -0.2867
     68  CB        63.9240   14.8040    8.6570 C.3    94  ASN94       0.1155
     69  CG        64.6770   16.0200    8.1220 C.2    94  ASN94       0.2627
     70  OD1       65.2840   16.0280    7.0090 O.2    94  ASN94      -0.2716
     71  ND2       64.6730   17.0480    8.9230 N.am   94  ASN94      -0.0877
     72  N         53.6640   23.3190    6.9750 N.3   113  ALA113     -0.1245
     73  CA        53.7300   24.4550    7.8850 C.3   113  ALA113      0.1562
     74  C         52.8720   25.6190    7.3520 C.2   113  ALA113      0.2260
     75  O         52.8930   26.6910    7.9240 O.2   113  ALA113     -0.2867
     76  CB        55.1860   24.9060    8.0850 C.3   113  ALA113      0.0290
@<TRIPOS>BOND
     1    64    65    1
     2    72    73    1
     3    63    62   ar
     4    63    61   ar
     5    62    60   ar
     6    70    69    2
     7    61    59   ar
     8    59    57   ar
     9    59    58   ar
    10    60    57   ar
    11    57    55   ar
    12    58    56   ar
    13    55    56   ar
    14    55    54    1
    15    54    51    1
    16    74    73    1
    17    74    75    2
    18    65    66    1
    19    65    68    1
    20    73    76    1
    21    28    26   am
    22    69    68    1
    23    69    71   am
    24    66    67    2
    25    52    51    1
    26    52    53    2
    27    51    50    1
    28    26    27    2
    29    26    25    1
    30    50    47   am
    31    25    22    1
    32     9     7   am
    33     8     7    2
    34    47    48    2
    35    47    46    1
    36     7     6    1
    37    22    23    1
    38    22    21    1
    39    17    16    2
    40    36    34    1
    41    23    24    2
    42    46    49    1
    43    46    45    1
    44    21    16   am
    45    16    15    1
    46     6     5    1
    47    34    33    1
    48    45    39   am
    49    10    11    1
    50    10     3   am
    51    11    12    1
    52    14    12   am
    53    14    15    1
    54    12    13    2
    55     2     5    1
    56     2     3    1
    57     2     1    1
    58    15    18    1
    59    40    39    2
    60    39    38    1
    61     3     4    2
    62    33    35    1
    63    33    30    1
    64    19    18    1
    65    32    31    2
    66    38    37    1
    67    38    41    1
    68    18    20    1
    69    31    30    1
    70    29    30    1
    71    41    42    1
    72    43    42    2
    73    42    44   am
