@<TRIPOS>MOLECULE
tmp/2jbfD00.pdb
 162 153 0 0 0
SMALL
GASTEIGER

@<TRIPOS>ATOM
      1  N          2.3240  -18.6870   -8.4650 N.3    59  ALA59      -0.1231
      2  CA         1.5040  -18.9070   -9.6380 C.3    59  ALA59       0.1694
      3  C          0.3720  -19.8840   -9.2400 C.2    59  ALA59       0.2592
      4  O         -0.1400  -19.8180   -8.1070 O.2    59  ALA59      -0.2718
      5  CB         2.3590  -19.4270  -10.8250 C.3    59  ALA59       0.0304
      6  N         -0.0400  -20.7500  -10.1640 N.am   60  SER60      -0.1952
      7  CA        -1.1700  -21.6410   -9.9050 C.3    60  SER60       0.1924
      8  C         -0.8550  -22.7810   -8.9710 C.2    60  SER60       0.2314
      9  O         -1.7450  -23.5800   -8.6660 O.2    60  SER60      -0.2863
     10  CB        -1.7860  -22.1450  -11.2040 C.3    60  SER60       0.2116
     11  OG        -2.3830  -21.0280  -11.9520 O.3    60  SER60      -0.2180
     12  N         -3.0300  -23.3470   -5.8800 N.3    63  LYS63      -0.1245
     13  CA        -4.3300  -24.0280   -5.9650 C.3    63  LYS63       0.1561
     14  C         -4.2850  -25.3750   -5.2380 C.2    63  LYS63       0.2260
     15  O         -5.3140  -25.8440   -4.7730 O.2    63  LYS63      -0.2867
     16  CB        -4.7770  -24.1210   -7.4340 C.3    63  LYS63       0.0271
     17  CG        -5.1190  -22.7140   -7.9760 C.3    63  LYS63       0.0035
     18  CD        -5.0510  -22.6130   -9.5030 C.3    63  LYS63       0.0206
     19  CE        -5.5650  -21.2640  -10.0040 C.3    63  LYS63       0.1093
     20  NZ        -5.3320  -21.0210  -11.4360 N.3    63  LYS63      -0.1314
     21  N         -8.2930  -15.5810  -18.0710 N.3    95  GLU95      -0.1231
     22  CA        -7.2170  -16.5590  -18.2390 C.3    95  GLU95       0.1699
     23  C         -7.8130  -17.9690  -18.1340 C.2    95  GLU95       0.2592
     24  O         -8.9770  -18.1730  -18.5430 O.2    95  GLU95      -0.2718
     25  CB        -6.0950  -16.3000  -17.2290 C.3    95  GLU95       0.0402
     26  CG        -5.3980  -14.9890  -17.4400 C.3    95  GLU95       0.1161
     27  CD        -4.5380  -15.0180  -18.6650 C.2    95  GLU95       0.3649
     28  OE1       -3.6150  -15.8740  -18.6870 O.co2  95  GLU95      -0.2457
     29  OE2       -4.8120  -14.2120  -19.5940 O.co2  95  GLU95      -0.2457
     30  N         -7.0330  -18.9240  -17.6210 N.am   96  ALA96      -0.1980
     31  CA        -7.4610  -20.3320  -17.5540 C.3    96  ALA96       0.1597
     32  C         -8.8470  -20.4640  -16.9260 C.2    96  ALA96       0.2287
     33  O         -9.1340  -19.8320  -15.9170 O.2    96  ALA96      -0.2864
     34  CB        -6.4630  -21.1660  -16.7650 C.3    96  ALA96       0.0319
     35  N         -8.0270  -27.8540  -14.8540 N.3   120  ILE120     -0.1231
     36  CA        -7.7420  -26.8550  -15.8880 C.3   120  ILE120      0.1692
     37  C         -7.3100  -25.4940  -15.3140 C.2   120  ILE120      0.2592
     38  O         -7.2650  -24.5000  -16.0730 O.2   120  ILE120     -0.2718
     39  CB        -8.9150  -26.7110  -16.8800 C.3   120  ILE120      0.0266
     40  CG1      -10.1760  -26.1220  -16.2030 C.3   120  ILE120      0.0019
     41  CG2       -9.2140  -28.0530  -17.5090 C.3   120  ILE120      0.0020
     42  CD1      -11.2090  -25.6430  -17.1470 C.3   120  ILE120      0.0001
     43  N         -7.0010  -25.4530  -14.0040 N.am  121  SER121     -0.1952
     44  CA        -6.4330  -24.2760  -13.3450 C.3   121  SER121      0.1924
     45  C         -7.4520  -23.0900  -13.3840 C.2   121  SER121      0.2314
     46  O         -7.0610  -21.9220  -13.4940 O.2   121  SER121     -0.2863
     47  CB        -5.0870  -23.8750  -14.0060 C.3   121  SER121      0.2116
     48  OG        -4.1860  -23.3490  -13.0520 O.3   121  SER121     -0.2180
     49  N         -9.4820  -20.0480  -12.9170 N.3   123  ASN123     -0.1240
     50  CA        -9.2550  -18.9530  -11.9680 C.3   123  ASN123      0.1653
     51  C        -10.5330  -18.4920  -11.2710 C.2   123  ASN123      0.2266
     52  O        -10.5500  -18.2080  -10.0740 O.2   123  ASN123     -0.2867
     53  CB        -8.5430  -17.8090  -12.6870 C.3   123  ASN123      0.1155
     54  CG        -7.1170  -18.1850  -13.0480 C.2   123  ASN123      0.2627
     55  OD1       -6.3580  -18.5740  -12.1960 O.2   123  ASN123     -0.2716
     56  ND2       -6.7790  -18.1050  -14.3210 N.am  123  ASN123     -0.0877
     57  N         -7.0310  -14.6820   -8.0530 N.3   157  GLU157     -0.1231
     58  CA        -6.4780  -15.2270   -9.2710 C.3   157  GLU157      0.1684
     59  C         -7.0930  -14.4840  -10.4460 C.2   157  GLU157      0.2434
     60  O         -8.2280  -14.0070  -10.3460 O.2   157  GLU157     -0.2733
     61  CB        -6.7810  -16.7300   -9.3610 C.3   157  GLU157      0.0402
     62  CG        -6.0520  -17.5570   -8.3130 C.3   157  GLU157      0.1161
     63  CD        -4.5290  -17.5610   -8.4900 C.2   157  GLU157      0.3649
     64  OE1       -4.0500  -17.4410   -9.6310 O.co2 157  GLU157     -0.2457
     65  OE2       -3.7980  -17.6860   -7.4910 O.co2 157  GLU157     -0.2457
     66  N         -6.3710  -14.4130  -11.5780 N.am  158  PRO158     -0.2729
     67  CA        -5.0920  -15.0640  -11.8920 C.3   158  PRO158      0.1401
     68  C         -3.8060  -14.5490  -11.2010 C.2   158  PRO158      0.2269
     69  O         -2.7840  -15.2330  -11.2860 O.2   158  PRO158     -0.2865
     70  CB        -4.9880  -14.9120  -13.4240 C.3   158  PRO158      0.0296
     71  CG        -5.8000  -13.7740  -13.7540 C.3   158  PRO158      0.0237
     72  CD        -6.9230  -13.7000  -12.7460 C.3   158  PRO158      0.0939
     73  N         -1.5700  -12.3160  -11.9340 N.3   160  MET160     -0.1245
     74  CA        -0.4920  -12.3560  -12.9270 C.3   160  MET160      0.1570
     75  C          0.8100  -11.6340  -12.4970 C.2   160  MET160      0.2261
     76  O          1.8830  -11.9510  -13.0260 O.2   160  MET160     -0.2867
     77  CB        -1.0050  -11.8460  -14.2950 C.3   160  MET160      0.0387
     78  CG        -2.0150  -12.8170  -14.9820 C.3   160  MET160      0.0595
     79  SD        -1.3560  -14.4920  -15.3310 S.3   160  MET160     -0.1393
     80  CE        -0.2460  -13.9880  -16.6550 C.3   160  MET160      0.0692
     81  N         -4.5190  -31.1750  -16.9210 N.3   200  VAL200     -0.1231
     82  CA        -4.2220  -31.1700  -18.3570 C.3   200  VAL200      0.1692
     83  C         -2.8910  -30.5290  -18.7200 C.2   200  VAL200      0.2592
     84  O         -2.6060  -30.3270  -19.9110 O.2   200  VAL200     -0.2718
     85  CB        -5.3670  -30.4940  -19.1690 C.3   200  VAL200      0.0266
     86  CG1       -6.7020  -31.1050  -18.8100 C.3   200  VAL200      0.0020
     87  CG2       -5.3920  -29.0060  -18.9310 C.3   200  VAL200      0.0020
     88  N         -2.0650  -30.2130  -17.7310 N.am  201  THR201     -0.1953
     89  CA        -0.7270  -29.6450  -17.9750 C.3   201  THR201      0.1897
     90  C          0.3500  -30.4870  -17.3190 C.2   201  THR201      0.2313
     91  O          0.6300  -30.3660  -16.1220 O.2   201  THR201     -0.2863
     92  CB        -0.5480  -28.1370  -17.5400 C.3   201  THR201      0.1794
     93  OG1       -1.5430  -27.3110  -18.1690 O.3   201  THR201     -0.2208
     94  CG2        0.8580  -27.6230  -17.9880 C.3   201  THR201      0.0378
     95  N          5.9380  -30.6380  -17.1120 N.3   204  LEU204     -0.1245
     96  CA         7.0330  -30.3300  -16.2130 C.3   204  LEU204      0.1561
     97  C          7.4890  -31.5830  -15.4530 C.2   204  LEU204      0.2260
     98  O          8.1620  -32.4120  -16.0330 O.2   204  LEU204     -0.2867
     99  CB         6.6740  -29.1530  -15.3240 C.3   204  LEU204      0.0270
    100  CG         6.3250  -27.8590  -16.0790 C.3   204  LEU204      0.0019
    101  CD1        5.8700  -26.7900  -15.0680 C.3   204  LEU204      0.0001
    102  CD2        7.4680  -27.3510  -17.0070 C.3   204  LEU204      0.0001
    103  N          0.2660  -30.1790   -9.4190 N.3   218  LYS218     -0.1231
    104  CA        -0.3480  -28.9670   -9.9370 C.3   218  LYS218      0.1693
    105  C          0.7220  -28.0040  -10.4060 C.2   218  LYS218      0.2593
    106  O          1.6310  -27.6510   -9.6500 O.2   218  LYS218     -0.2718
    107  CB        -1.1790  -28.2580   -8.8520 C.3   218  LYS218      0.0285
    108  CG        -1.8690  -26.9880   -9.3160 C.3   218  LYS218      0.0035
    109  CD        -2.9320  -27.2580  -10.3320 C.3   218  LYS218      0.0206
    110  CE        -3.4470  -25.9730  -10.9840 C.3   218  LYS218      0.1093
    111  NZ        -2.6740  -25.4820  -12.1510 N.3   218  LYS218     -0.1314
    112  N          0.5830  -27.6160  -11.6570 N.am  219  THR219     -0.1939
    113  CA         1.5660  -26.7560  -12.3310 C.3   219  THR219      0.2028
    114  C          1.1890  -25.3000  -12.0210 C.2   219  THR219      0.2643
    115  O          0.0280  -24.9860  -11.7310 O.2   219  THR219     -0.2714
    116  CB         1.5300  -26.9300  -13.8330 C.3   219  THR219      0.1808
    117  OG1        0.1950  -26.6860  -14.2510 O.3   219  THR219     -0.2208
    118  CG2        1.9140  -28.3290  -14.2730 C.3   219  THR219      0.0379
    119  N          2.1780  -24.4230  -12.0930 N.am  220  GLY220     -0.1939
    120  CA         1.9130  -22.9870  -12.1900 C.3   220  GLY220      0.2014
    121  C          2.7950  -22.3340  -13.2290 C.2   220  GLY220      0.2639
    122  O          3.9620  -22.6740  -13.3770 O.2   220  GLY220     -0.2714
    123  N          2.2400  -21.3840  -13.9600 N.am  221  ASP221     -0.1957
    124  CA         3.0610  -20.5940  -14.8780 C.3   221  ASP221      0.1840
    125  C          2.4790  -19.1920  -15.0310 C.2   221  ASP221      0.2622
    126  O          1.3350  -19.0540  -15.4410 O.2   221  ASP221     -0.2715
    127  CB         3.1450  -21.3190  -16.2070 C.3   221  ASP221      0.1450
    128  CG         3.9630  -20.6000  -17.2480 C.2   221  ASP221      0.3671
    129  OD1        4.5910  -19.5640  -16.9670 O.co2 221  ASP221     -0.2456
    130  OD2        3.9830  -21.1240  -18.3780 O.co2 221  ASP221     -0.2456
    131  N          3.2430  -18.1590  -14.6580 N.am  222  ILE222     -0.1963
    132  CA         2.8080  -16.7700  -14.8620 C.3   222  ILE222      0.1727
    133  C          3.7620  -16.0370  -15.7880 C.2   222  ILE222      0.2616
    134  O          3.7650  -14.7950  -15.8340 O.2   222  ILE222     -0.2715
    135  CB         2.6300  -15.9710  -13.5320 C.3   222  ILE222      0.0290
    136  CG1        3.9100  -15.9720  -12.6980 C.3   222  ILE222      0.0022
    137  CG2        1.4470  -16.5250  -12.7370 C.3   222  ILE222      0.0023
    138  CD1        3.7880  -15.1800  -11.3610 C.3   222  ILE222      0.0001
    139  N          4.5360  -16.7980  -16.5650 N.am  223  GLY223     -0.1955
    140  CA         5.4710  -16.2060  -17.5410 C.3   223  GLY223      0.1869
    141  C          6.8670  -16.0880  -16.9690 C.2   223  GLY223      0.2309
    142  O          7.8010  -16.6910  -17.4570 O.2   223  GLY223     -0.2863
    143  N         10.6040  -14.0130  -19.4550 N.3   250  TYR250     -0.1227
    144  CA         9.2150  -14.3050  -19.7770 C.3   250  TYR250      0.1736
    145  C          9.1020  -15.4830  -20.7570 C.2   250  TYR250      0.2595
    146  O          9.6100  -15.3910  -21.8870 O.2   250  TYR250     -0.2718
    147  CB         8.5280  -13.0500  -20.3550 C.3   250  TYR250      0.0548
    148  CG         7.0440  -13.2120  -20.3950 C.ar  250  TYR250     -0.0200
    149  CD1        6.2730  -12.8950  -19.2910 C.ar  250  TYR250     -0.0009
    150  CD2        6.4080  -13.7110  -21.5260 C.ar  250  TYR250     -0.0009
    151  CE1        4.9210  -13.0790  -19.2860 C.ar  250  TYR250      0.0417
    152  CE2        5.0240  -13.9100  -21.5270 C.ar  250  TYR250      0.0417
    153  CZ         4.2920  -13.5920  -20.3960 C.ar  250  TYR250      0.1957
    154  OH         2.9260  -13.7630  -20.3430 O.3   250  TYR250     -0.2866
    155  N          8.4510  -16.5730  -20.3160 N.am  251  ASN251     -0.1974
    156  CA         8.2210  -17.7920  -21.1310 C.3   251  ASN251      0.1688
    157  C          9.4700  -18.5100  -21.6310 C.2   251  ASN251      0.2292
    158  O          9.3910  -19.2540  -22.6010 O.2   251  ASN251     -0.2864
    159  CB         7.3310  -17.4880  -22.3590 C.3   251  ASN251      0.1181
    160  CG         5.8680  -17.6630  -22.0890 C.2   251  ASN251      0.2629
    161  OD1        5.0740  -17.5900  -23.0300 O.2   251  ASN251     -0.2716
    162  ND2        5.4790  -17.8230  -20.8160 N.am  251  ASN251     -0.0877
@<TRIPOS>BOND
     1   161   160    2
     2   158   157    2
     3   159   160    1
     4   159   156    1
     5   160   162   am
     6   146   145    2
     7   157   156    1
     8   152   150   ar
     9   152   153   ar
    10   150   148   ar
    11   156   155    1
    12   145   155   am
    13   145   144    1
    14   153   154    1
    15   153   151   ar
    16   148   147    1
    17   148   149   ar
    18   147   144    1
    19    84    83    2
    20   144   143    1
    21    29    27   ar
    22   149   151   ar
    23    85    87    1
    24    85    86    1
    25    85    82    1
    26    83    82    1
    27    83    88   am
    28    28    27   ar
    29    27    26    1
    30    24    23    2
    31   130   128   ar
    32    82    81    1
    33    22    23    1
    34    22    21    1
    35    22    25    1
    36    93    92    1
    37    23    30   am
    38    94    92    1
    39    89    88    1
    40    89    92    1
    41    89    90    1
    42    30    31    1
    43    31    32    1
    44    31    34    1
    45   140   141    1
    46   140   139    1
    47    41    39    1
    48   142   141    2
    49    26    25    1
    50    90    91    2
    51   128   129   ar
    52   128   127    1
    53    42    40    1
    54    95    96    1
    55   102   100    1
    56    32    33    2
    57    39    40    1
    58    39    36    1
    59    80    79    1
    60   139   133   am
    61    96    97    1
    62    96    99    1
    63   127   124    1
    64   100    99    1
    65   100   101    1
    66    38    37    2
    67    98    97    2
    68    36    37    1
    69    36    35    1
    70   134   133    2
    71   133   132    1
    72   126   125    2
    73    79    78    1
    74    37    43   am
    75   125   124    1
    76   125   131   am
    77    78    77    1
    78   124   123    1
    79   132   131    1
    80   132   135    1
    81    56    54   am
    82    77    74    1
    83   118   116    1
    84   117   116    1
    85    47    44    1
    86    47    48    1
    87    43    44    1
    88   123   121   am
    89   116   113    1
    90    71    70    1
    91    71    72    1
    92   135   137    1
    93   135   136    1
    94    46    45    2
    95    70    67    1
    96    45    44    1
    97   122   121    2
    98   121   120    1
    99    54    53    1
   100    54    55    2
   101    76    75    2
   102    74    75    1
   103    74    73    1
   104    49    50    1
   105    72    66    1
   106   136   138    1
   107    53    50    1
   108   113   114    1
   109   113   112    1
   110   120   119    1
   111   111   110    1
   112   119   114   am
   113   114   115    2
   114    50    51    1
   115    11    10    1
   116    67    66    1
   117    67    68    1
   118   112   105   am
   119    66    59   am
   120    20    19    1
   121    69    68    2
   122    51    52    2
   123    10     7    1
   124   110   109    1
   125     5     2    1
   126    59    60    2
   127    59    58    1
   128   105   104    1
   129   105   106    2
   130   109   108    1
   131     6     7    1
   132     6     3   am
   133    19    18    1
   134   104   103    1
   135   104   107    1
   136     7     8    1
   137     2     3    1
   138     2     1    1
   139    64    63   ar
   140    18    17    1
   141    61    58    1
   142    61    62    1
   143   108   107    1
   144    58    57    1
   145     3     4    2
   146     8     9    2
   147    63    62    1
   148    63    65   ar
   149    17    16    1
   150    16    13    1
   151    13    12    1
   152    13    14    1
   153    14    15    2
