@<TRIPOS>MOLECULE
tmp/2jbhB00.pdb
 122 118 0 0 0
SMALL
GASTEIGER

@<TRIPOS>ATOM
      1  N         46.5360   65.3900   26.9530 N.3    66  VAL66      -0.1245
      2  CA        47.2240   66.1210   25.8950 C.3    66  VAL66       0.1561
      3  C         46.3340   66.2320   24.6420 C.2    66  VAL66       0.2260
      4  O         46.2270   65.2870   23.8300 O.2    66  VAL66      -0.2867
      5  CB        48.6140   65.5080   25.5580 C.3    66  VAL66       0.0252
      6  CG1       49.3270   66.4360   24.5430 C.3    66  VAL66       0.0019
      7  CG2       49.4600   65.3210   26.8370 C.3    66  VAL66       0.0019
      8  N         48.4640   60.7250   26.5300 N.3   132  GLU132     -0.1231
      9  CA        48.9120   61.1500   25.1850 C.3   132  GLU132      0.1699
     10  C         48.4990   60.1430   24.1150 C.2   132  GLU132      0.2592
     11  O         48.3090   58.9440   24.4150 O.2   132  GLU132     -0.2718
     12  CB        50.4400   61.3200   25.2460 C.3   132  GLU132      0.0402
     13  CG        51.1690   61.5220   23.9230 C.3   132  GLU132      0.1161
     14  CD        50.8130   62.8190   23.1990 C.2   132  GLU132      0.3649
     15  OE1       49.6400   63.2850   23.2730 O.co2 132  GLU132     -0.2457
     16  OE2       51.7160   63.3720   22.4900 O.co2 132  GLU132     -0.2457
     17  N         48.3860   60.6010   22.8660 N.am  133  ASP133     -0.1960
     18  CA        47.9550   59.7290   21.7650 C.3   133  ASP133      0.1840
     19  C         49.0690   58.8120   21.2720 C.2   133  ASP133      0.2622
     20  O         48.9330   57.5900   21.2610 O.2   133  ASP133     -0.2715
     21  CB        47.2730   60.4970   20.5940 C.3   133  ASP133      0.1450
     22  CG        48.0680   61.7070   20.0660 C.2   133  ASP133      0.3671
     23  OD1       49.1180   62.0900   20.6120 O.co2 133  ASP133     -0.2456
     24  OD2       47.5820   62.2940   19.0770 O.co2 133  ASP133     -0.2456
     25  N         50.1800   59.4050   20.8660 N.am  134  VAL134     -0.1963
     26  CA        51.2200   58.6280   20.1960 C.3   134  VAL134      0.1727
     27  C         52.5860   59.2360   20.4480 C.2   134  VAL134      0.2616
     28  O         52.7560   60.4540   20.3750 O.2   134  VAL134     -0.2715
     29  CB        50.9290   58.4310   18.6650 C.3   134  VAL134      0.0290
     30  CG1       50.6120   59.7420   17.9690 C.3   134  VAL134      0.0023
     31  CG2       52.0860   57.6680   17.9410 C.3   134  VAL134      0.0023
     32  N         53.5380   58.3630   20.7490 N.am  135  VAL135     -0.1963
     33  CA        54.9370   58.7650   20.8590 C.3   135  VAL135      0.1727
     34  C         55.6310   58.3760   19.5470 C.2   135  VAL135      0.2617
     35  O         55.5910   57.1990   19.1300 O.2   135  VAL135     -0.2715
     36  CB        55.6170   58.0860   22.0800 C.3   135  VAL135      0.0290
     37  CG1       57.1680   58.2920   22.0570 C.3   135  VAL135      0.0023
     38  CG2       55.0280   58.6050   23.3980 C.3   135  VAL135      0.0023
     39  N         56.2580   59.3700   18.9120 N.am  136  GLY136     -0.1940
     40  CA        57.0070   59.1720   17.6670 C.3   136  GLY136      0.2014
     41  C         58.4920   59.1800   17.9900 C.2   136  GLY136      0.2640
     42  O         59.0560   58.1480   18.3470 O.2   136  GLY136     -0.2714
     43  N         59.1180   60.3510   17.8760 N.am  137  THR137     -0.1936
     44  CA        60.5250   60.5270   18.2920 C.3   137  THR137      0.2028
     45  C         60.6860   60.5800   19.8130 C.2   137  THR137      0.2643
     46  O         61.7790   60.3370   20.3580 O.2   137  THR137     -0.2714
     47  CB        61.1550   61.8180   17.6940 C.3   137  THR137      0.1808
     48  OG1       60.5250   62.9720   18.2620 O.3   137  THR137     -0.2208
     49  CG2       61.0170   61.8550   16.1920 C.3   137  THR137      0.0379
     50  N         59.6050   60.9100   20.5190 N.am  138  GLY138     -0.1939
     51  CA        59.6780   61.0430   21.9660 C.3   138  GLY138      0.2014
     52  C         59.9980   62.4530   22.4340 C.2   138  GLY138      0.2639
     53  O         59.9590   62.7300   23.6350 O.2   138  GLY138     -0.2714
     54  N         60.2820   63.3650   21.4980 N.am  139  ARG139     -0.1963
     55  CA        60.6980   64.7250   21.8750 C.3   139  ARG139      0.1729
     56  C         59.5930   65.4720   22.6130 C.2   139  ARG139      0.2617
     57  O         59.8370   66.1840   23.5770 O.2   139  ARG139     -0.2715
     58  CB        61.1380   65.5180   20.6390 C.3   139  ARG139      0.0348
     59  CG        62.4220   64.9680   20.0060 C.3   139  ARG139      0.0492
     60  CD        63.1220   66.0140   19.1460 C.3   139  ARG139      0.2205
     61  NE        64.3060   65.4710   18.4650 N.pl3 139  ARG139     -0.0865
     62  CZ        65.2310   66.2080   17.8460 C.cat 139  ARG139      0.5346
     63  NH1       65.1330   67.5350   17.8200 N.pl3 139  ARG139      0.1354
     64  NH2       66.2640   65.6150   17.2560 N.pl3 139  ARG139      0.1354
     65  N         58.3570   65.2650   22.1630 N.am  140  THR140     -0.1937
     66  CA        57.2290   65.9660   22.7700 C.3   140  THR140      0.2028
     67  C         57.0700   65.5660   24.2360 C.2   140  THR140      0.2642
     68  O         56.9280   66.4130   25.1230 O.2   140  THR140     -0.2714
     69  CB        55.9440   65.7220   21.9660 C.3   140  THR140      0.1808
     70  OG1       56.1340   66.1530   20.6040 O.3   140  THR140     -0.2208
     71  CG2       54.7820   66.4820   22.5800 C.3   140  THR140      0.0379
     72  N         57.1130   64.2670   24.5030 N.am  141  MET141     -0.1976
     73  CA        56.9180   63.8060   25.8690 C.3   141  MET141      0.1605
     74  C         58.1040   64.2080   26.7590 C.2   141  MET141      0.2287
     75  O         57.9070   64.5820   27.9100 O.2   141  MET141     -0.2864
     76  CB        56.6500   62.3040   25.8900 C.3   141  MET141      0.0413
     77  CG        55.2210   61.9350   25.4730 C.3   141  MET141      0.0598
     78  SD        53.9310   62.6660   26.5330 S.3   141  MET141     -0.1393
     79  CE        53.4440   64.0580   25.5320 C.3   141  MET141      0.0692
     80  N         55.6860   54.3830   18.5810 N.3   164  LYS164     -0.1245
     81  CA        56.3030   53.9040   17.3250 C.3   164  LYS164      0.1561
     82  C         57.6600   53.2530   17.5660 C.2   164  LYS164      0.2260
     83  O         58.4330   53.7160   18.4050 O.2   164  LYS164     -0.2867
     84  CB        56.4320   55.0160   16.2870 C.3   164  LYS164      0.0271
     85  CG        55.0880   55.5740   15.8150 C.3   164  LYS164      0.0035
     86  CD        55.2860   56.7000   14.8320 C.3   164  LYS164      0.0206
     87  CE        53.9450   57.2400   14.3640 C.3   164  LYS164      0.1093
     88  NZ        54.1180   58.3410   13.3590 N.3   164  LYS164     -0.1314
     89  N         52.5240   56.7650    9.6750 N.3   181  PHE181     -0.1227
     90  CA        51.6090   57.8140   10.0970 C.3   181  PHE181      0.1736
     91  C         50.2180   57.2010   10.2570 C.2   181  PHE181      0.2595
     92  O         49.7160   56.5530    9.3450 O.2   181  PHE181     -0.2718
     93  CB        51.5660   58.9610    9.0930 C.3   181  PHE181      0.0547
     94  CG        50.8180   60.1410    9.6060 C.ar  181  PHE181     -0.0202
     95  CD1       51.4480   61.0530   10.4420 C.ar  181  PHE181     -0.0042
     96  CD2       49.4640   60.3180    9.2950 C.ar  181  PHE181     -0.0042
     97  CE1       50.7490   62.1630   10.9490 C.ar  181  PHE181     -0.0003
     98  CE2       48.7630   61.4060    9.8030 C.ar  181  PHE181     -0.0003
     99  CZ        49.4090   62.3320   10.6210 C.ar  181  PHE181     -0.0000
    100  N         49.6040   57.4110   11.4180 N.am  182  VAL182     -0.1980
    101  CA        48.2750   56.8430   11.6700 C.3   182  VAL182      0.1595
    102  C         47.2500   57.8920   12.0840 C.2   182  VAL182      0.2287
    103  O         47.6060   58.9480   12.5840 O.2   182  VAL182     -0.2864
    104  CB        48.3230   55.7460   12.7390 C.3   182  VAL182      0.0276
    105  CG1       49.0950   54.5360   12.2180 C.3   182  VAL182      0.0022
    106  CG2       48.9360   56.2820   14.0400 C.3   182  VAL182      0.0022
    107  N         42.9750   60.6870   16.5960 N.3   187  LEU187     -0.1231
    108  CA        44.2370   61.0840   15.9270 C.3   187  LEU187      0.1693
    109  C         43.9240   61.6020   14.5340 C.2   187  LEU187      0.2592
    110  O         43.0710   61.0460   13.8540 O.2   187  LEU187     -0.2718
    111  CB        45.2220   59.9050   15.8400 C.3   187  LEU187      0.0284
    112  CG        45.9690   59.4930   17.1100 C.3   187  LEU187      0.0019
    113  CD1       45.0000   58.9010   18.1430 C.3   187  LEU187      0.0001
    114  CD2       47.0310   58.4350   16.7730 C.3   187  LEU187      0.0001
    115  N         44.5860   62.6870   14.1230 N.am  188  ASP188     -0.1974
    116  CA        44.1970   63.3870   12.8810 C.3   188  ASP188      0.1709
    117  C         45.2830   63.4010   11.7910 C.2   188  ASP188      0.2293
    118  O         46.4720   63.1230   12.0430 O.2   188  ASP188     -0.2864
    119  CB        43.8840   64.8590   13.1830 C.3   188  ASP188      0.1436
    120  CG        45.1580   65.6830   13.4240 C.2   188  ASP188      0.3671
    121  OD1       45.9820   65.2870   14.2740 O.co2 188  ASP188     -0.2456
    122  OD2       45.3450   66.7290   12.7640 O.co2 188  ASP188     -0.2456
@<TRIPOS>BOND
     1    93    94    1
     2    93    90    1
     3    96    94   ar
     4    96    98   ar
     5    92    91    2
     6    94    95   ar
     7    89    90    1
     8    98    99   ar
     9    90    91    1
    10    91   100   am
    11    95    97   ar
    12    99    97   ar
    13   100   101    1
    14   101   102    1
    15   101   104    1
    16   117   118    2
    17   117   116    1
    18   102   103    2
    19   105   104    1
    20   104   106    1
    21   122   120   ar
    22   116   119    1
    23   116   115    1
    24   119   120    1
    25    88    87    1
    26   120   121   ar
    27   110   109    2
    28   115   109   am
    29    87    86    1
    30   109   108    1
    31    86    85    1
    32    85    84    1
    33   111   108    1
    34   111   112    1
    35   108   107    1
    36    49    47    1
    37    84    81    1
    38   114   112    1
    39   112   113    1
    40    64    62    1
    41    81    82    1
    42    81    80    1
    43    82    83    2
    44    40    41    1
    45    40    39    1
    46    47    48    1
    47    47    44    1
    48    63    62    1
    49    62    61    2
    50    43    41   am
    51    43    44    1
    52    31    29    1
    53    30    29    1
    54    41    42    2
    55    44    45    1
    56    61    60    1
    57    29    26    1
    58    39    34   am
    59    24    22   ar
    60    35    34    2
    61    60    59    1
    62    34    33    1
    63    45    46    2
    64    45    50   am
    65    59    58    1
    66    22    21    1
    67    22    23   ar
    68    26    27    1
    69    26    25    1
    70    28    27    2
    71    27    32   am
    72    50    51    1
    73    21    18    1
    74    70    69    1
    75    58    55    1
    76    32    33    1
    77    33    36    1
    78    25    19   am
    79    20    19    2
    80    19    18    1
    81    54    55    1
    82    54    52   am
    83    18    17    1
    84    55    56    1
    85    51    52    1
    86    69    71    1
    87    69    66    1
    88    37    36    1
    89    36    38    1
    90    65    56   am
    91    65    66    1
    92    52    53    2
    93    16    14   ar
    94    56    57    2
    95    66    67    1
    96    17    10   am
    97    14    15   ar
    98    14    13    1
    99     4     3    2
   100    13    12    1
   101    10    11    2
   102    10     9    1
   103    67    72   am
   104    67    68    2
   105    72    73    1
   106     6     5    1
   107     3     2    1
   108     9    12    1
   109     9     8    1
   110    77    76    1
   111    77    78    1
   112    79    78    1
   113     5     2    1
   114     5     7    1
   115    73    76    1
   116    73    74    1
   117     2     1    1
   118    74    75    2
