@<TRIPOS>MOLECULE
tmp/2jbkA07.pdb
 149 143 0 0 0
SMALL
GASTEIGER

@<TRIPOS>ATOM
      1  N         21.7740   50.4480   36.4980 N.3   153  PHE153     -0.1227
      2  CA        20.6210   49.5850   36.4900 C.3   153  PHE153      0.1736
      3  C         20.3560   49.0920   35.0730 C.2   153  PHE153      0.2595
      4  O         20.2720   49.8970   34.1710 O.2   153  PHE153     -0.2718
      5  CB        19.4040   50.3330   37.0160 C.3   153  PHE153      0.0547
      6  CG        18.1000   49.5480   36.9440 C.ar  153  PHE153     -0.0202
      7  CD1       17.9290   48.3760   37.6760 C.ar  153  PHE153     -0.0042
      8  CD2       17.0610   49.9880   36.1500 C.ar  153  PHE153     -0.0042
      9  CE1       16.7540   47.6520   37.6060 C.ar  153  PHE153     -0.0003
     10  CE2       15.8840   49.2770   36.0830 C.ar  153  PHE153     -0.0003
     11  CZ        15.7300   48.0980   36.8230 C.ar  153  PHE153     -0.0000
     12  N         20.2330   47.7640   34.9190 N.am  154  ARG154     -0.1980
     13  CA        19.9470   47.0900   33.6580 C.3   154  ARG154      0.1597
     14  C         18.7470   47.6570   32.8770 C.2   154  ARG154      0.2287
     15  O         18.7090   47.5670   31.6600 O.2   154  ARG154     -0.2864
     16  CB        19.8290   45.5710   33.9060 C.3   154  ARG154      0.0334
     17  CG        18.4750   45.0830   34.5280 C.3   154  ARG154      0.0492
     18  CD        18.4690   43.5870   34.9250 C.3   154  ARG154      0.2205
     19  NE        19.3630   43.1710   36.0270 N.pl3 154  ARG154     -0.0865
     20  CZ        19.1360   43.3900   37.3310 C.cat 154  ARG154      0.5346
     21  NH1       18.0550   44.0210   37.7180 N.pl3 154  ARG154      0.1354
     22  NH2       19.9880   42.9850   38.2780 N.pl3 154  ARG154      0.1354
     23  N         17.1460   39.2410   36.2370 N.3   200  GLY200     -0.1210
     24  CA        16.7290   40.5590   36.6530 C.3   200  GLY200      0.1956
     25  C         15.7630   41.2500   35.7240 C.2   200  GLY200      0.2611
     26  O         15.6550   40.9540   34.5260 O.2   200  GLY200     -0.2717
     27  N         15.0560   42.2240   36.2580 N.am  201  ASN201     -0.1974
     28  CA        13.9430   42.7640   35.5190 C.3   201  ASN201      0.1688
     29  C         14.3890   43.9900   34.7970 C.2   201  ASN201      0.2292
     30  O         15.4050   44.5650   35.1400 O.2   201  ASN201     -0.2864
     31  CB        12.7660   42.9680   36.4770 C.3   201  ASN201      0.1181
     32  CG        12.3170   44.3820   36.5750 C.2   201  ASN201      0.2629
     33  OD1       11.4390   44.8260   35.8110 O.2   201  ASN201     -0.2716
     34  ND2       12.8630   45.1100   37.5390 N.am  201  ASN201     -0.0877
     35  N         12.2380   46.6630   33.5560 N.3   203  LEU203     -0.1245
     36  CA        11.2160   47.6450   33.4180 C.3   203  LEU203      0.1561
     37  C         11.7290   49.0010   33.7590 C.2   203  LEU203      0.2260
     38  O         12.6490   49.1210   34.5210 O.2   203  LEU203     -0.2867
     39  CB        10.0870   47.3180   34.3820 C.3   203  LEU203      0.0270
     40  CG         9.0690   46.2510   33.9490 C.3   203  LEU203      0.0019
     41  CD1        7.9550   46.0880   34.9990 C.3   203  LEU203      0.0001
     42  CD2        8.5240   46.5280   32.4940 C.3   203  LEU203      0.0001
     43  N         20.7050   37.5000   48.2570 N.3   329  ASP329     -0.1239
     44  CA        19.6780   38.5130   47.9450 C.3   329  ASP329      0.1674
     45  C         18.3620   37.7850   47.7630 C.2   329  ASP329      0.2266
     46  O         18.2210   37.0620   46.7800 O.2   329  ASP329     -0.2867
     47  CB        20.0890   39.2470   46.6510 C.3   329  ASP329      0.1410
     48  CG        19.0110   40.1650   46.1080 C.2   329  ASP329      0.3668
     49  OD1       18.1510   40.6540   46.9000 O.co2 329  ASP329     -0.2456
     50  OD2       19.0260   40.4160   44.8670 O.co2 329  ASP329     -0.2456
     51  N          9.8230   42.0570   44.9280 N.3   366  GLU366     -0.1231
     52  CA        10.8200   43.1370   44.7730 C.3   366  GLU366      0.1699
     53  C         11.5480   43.0450   43.4610 C.2   366  GLU366      0.2592
     54  O         11.7040   44.0300   42.7690 O.2   366  GLU366     -0.2718
     55  CB        11.8750   43.0750   45.8470 C.3   366  GLU366      0.0402
     56  CG        12.7260   44.3240   45.9580 C.3   366  GLU366      0.1161
     57  CD        14.0650   44.2240   45.2650 C.2   366  GLU366      0.3649
     58  OE1       14.6040   43.1450   45.0160 O.co2 366  GLU366     -0.2457
     59  OE2       14.6240   45.2590   44.9630 O.co2 366  GLU366     -0.2457
     60  N         11.9710   41.8400   43.1310 N.am  367  GLU367     -0.1979
     61  CA        12.7310   41.5840   41.9450 C.3   367  GLU367      0.1602
     62  C         11.9480   42.0010   40.6900 C.2   367  GLU367      0.2287
     63  O         12.5140   42.2480   39.6360 O.2   367  GLU367     -0.2864
     64  CB        13.1040   40.1170   41.9180 C.3   367  GLU367      0.0415
     65  CG        13.8760   39.6540   43.1080 C.3   367  GLU367      0.1163
     66  CD        15.2820   40.2240   43.1170 C.2   367  GLU367      0.3649
     67  OE1       15.5160   41.0700   42.2470 O.co2 367  GLU367     -0.2457
     68  OE2       16.1520   39.8610   43.9520 O.co2 367  GLU367     -0.2457
     69  N         10.1790   44.8360   40.2360 N.3   369  GLY369     -0.1210
     70  CA         9.9690   46.2610   40.0590 C.3   369  GLY369      0.1956
     71  C          9.4130   46.9130   41.2950 C.2   369  GLY369      0.2611
     72  O          8.6720   47.9200   41.2280 O.2   369  GLY369     -0.2717
     73  N          9.7650   46.3480   42.4440 N.am  370  LEU370     -0.1979
     74  CA         9.5060   46.9720   43.7120 C.3   370  LEU370      0.1596
     75  C          8.0360   46.9670   43.8600 C.2   370  LEU370      0.2287
     76  O          7.5000   47.7770   44.5770 O.2   370  LEU370     -0.2864
     77  CB         9.9900   48.4200   43.7100 C.3   370  LEU370      0.0297
     78  CG        11.4730   48.7390   43.5180 C.3   370  LEU370      0.0022
     79  CD1       11.7990   50.2250   43.7000 C.3   370  LEU370      0.0001
     80  CD2       12.2330   47.8890   44.4970 C.3   370  LEU370      0.0001
     81  N         17.1120   44.5660   52.6680 N.3   395  ASP395     -0.1239
     82  CA        17.5380   43.5520   51.7150 C.3   395  ASP395      0.1674
     83  C         18.8380   42.9660   52.1910 C.2   395  ASP395      0.2266
     84  O         19.1230   42.9350   53.3950 O.2   395  ASP395     -0.2867
     85  CB        17.6700   44.1050   50.3050 C.3   395  ASP395      0.1410
     86  CG        17.4520   43.0270   49.2690 C.2   395  ASP395      0.3668
     87  OD1       17.5060   41.8930   49.6600 O.co2 395  ASP395     -0.2456
     88  OD2       17.2270   43.2380   48.0640 O.co2 395  ASP395     -0.2456
     89  N         16.9940   54.8110   43.7730 N.3   459  SER459     -0.1202
     90  CA        15.9780   53.8480   43.8870 C.3   459  SER459      0.2020
     91  C         16.7360   52.5380   43.8590 C.2   459  SER459      0.2619
     92  O         17.9300   52.5090   44.2040 O.2   459  SER459     -0.2717
     93  CB        14.9830   53.9850   42.7600 C.3   459  SER459      0.2103
     94  OG        14.1070   52.8820   42.7840 O.3   459  SER459     -0.2182
     95  N         16.0830   51.4550   43.4520 N.am  460  GLY460     -0.1942
     96  CA        16.7730   50.1900   43.2880 C.3   460  GLY460      0.2014
     97  C         16.4920   49.2450   44.3940 C.2   460  GLY460      0.2638
     98  O         17.1080   48.2470   44.4740 O.2   460  GLY460     -0.2714
     99  N         15.5580   49.5480   45.2670 N.am  461  ASN461     -0.1972
    100  CA        15.1750   48.6210   46.3030 C.3   461  ASN461      0.1688
    101  C         13.9930   49.2050   47.0960 C.2   461  ASN461      0.2292
    102  O         13.5570   50.2770   46.7920 O.2   461  ASN461     -0.2864
    103  CB        16.3680   48.3290   47.1630 C.3   461  ASN461      0.1181
    104  CG        16.3260   46.9840   47.7810 C.2   461  ASN461      0.2629
    105  OD1       15.4570   46.6930   48.5790 O.2   461  ASN461     -0.2716
    106  ND2       17.2590   46.1680   47.4380 N.am  461  ASN461     -0.0877
    107  N         25.5950   37.4320   42.0980 N.3   489  TYR489     -0.1227
    108  CA        24.3270   38.1420   42.2130 C.3   489  TYR489      0.1736
    109  C         23.2370   37.8010   41.1890 C.2   489  TYR489      0.2595
    110  O         23.4300   37.9410   39.9750 O.2   489  TYR489     -0.2718
    111  CB        24.6510   39.6250   42.2000 C.3   489  TYR489      0.0548
    112  CG        23.5120   40.5950   41.9310 C.ar  489  TYR489     -0.0200
    113  CD1       22.5700   40.9020   42.9420 C.ar  489  TYR489     -0.0009
    114  CD2       23.3880   41.2500   40.6790 C.ar  489  TYR489     -0.0009
    115  CE1       21.5450   41.7960   42.7070 C.ar  489  TYR489      0.0417
    116  CE2       22.3500   42.1490   40.4610 C.ar  489  TYR489      0.0417
    117  CZ        21.4520   42.4090   41.4830 C.ar  489  TYR489      0.1957
    118  OH        20.4360   43.2820   41.2780 O.3   489  TYR489     -0.2866
    119  N         22.0790   37.3660   41.7200 N.am  490  HIS490     -0.1975
    120  CA        20.9410   36.9980   40.8980 C.3   490  HIS490      0.1656
    121  C         21.2410   35.8110   40.0040 C.2   490  HIS490      0.2291
    122  O         20.8290   35.8210   38.8460 O.2   490  HIS490     -0.2864
    123  CB        20.4920   38.1590   40.0220 C.3   490  HIS490      0.0771
    124  CG        19.6910   39.1870   40.7550 C.ar  490  HIS490      0.0820
    125  ND1       19.0500   40.2200   40.1190 N.ar  490  HIS490     -0.2267
    126  CD2       19.4500   39.3490   42.0810 C.ar  490  HIS490      0.1154
    127  CE1       18.4370   40.9680   41.0180 C.ar  490  HIS490      0.1986
    128  NE2       18.6690   40.4680   42.2140 N.ar  490  HIS490     -0.2212
    129  N         19.4040   54.2090   37.8770 N.3   636  LYS636     -0.1231
    130  CA        18.3730   54.2760   38.8930 C.3   636  LYS636      0.1693
    131  C         18.9310   53.8500   40.2630 C.2   636  LYS636      0.2592
    132  O         18.3770   54.1860   41.3190 O.2   636  LYS636     -0.2718
    133  CB        17.2280   53.3980   38.4080 C.3   636  LYS636      0.0285
    134  CG        16.3500   52.8720   39.4300 C.3   636  LYS636      0.0035
    135  CD        15.2620   52.0330   38.7990 C.3   636  LYS636      0.0206
    136  CE        13.9980   52.0000   39.6410 C.3   636  LYS636      0.1093
    137  NZ        13.0330   51.1670   38.9450 N.3   636  LYS636     -0.1314
    138  N         20.0380   53.1260   40.2540 N.am  637  TYR637     -0.1976
    139  CA        20.6540   52.6510   41.4590 C.3   637  TYR637      0.1639
    140  C         21.2720   53.8150   42.2220 C.2   637  TYR637      0.2290
    141  O         21.3960   53.7780   43.4100 O.2   637  TYR637     -0.2864
    142  CB        21.7290   51.6520   41.0700 C.3   637  TYR637      0.0560
    143  CG        21.2310   50.2430   40.7660 C.ar  637  TYR637     -0.0198
    144  CD1       20.0360   49.7840   41.2890 C.ar  637  TYR637     -0.0009
    145  CD2       21.9780   49.3600   39.9470 C.ar  637  TYR637     -0.0009
    146  CE1       19.5870   48.4810   41.0070 C.ar  637  TYR637      0.0417
    147  CE2       21.5430   48.0710   39.6580 C.ar  637  TYR637      0.0417
    148  CZ        20.3550   47.6510   40.2080 C.ar  637  TYR637      0.1957
    149  OH        19.8800   46.4040   39.9540 O.3   637  TYR637     -0.2866
@<TRIPOS>BOND
     1    15    14    2
     2    42    40    1
     3    14    13    1
     4    36    35    1
     5    36    37    1
     6    36    39    1
     7    13    16    1
     8    13    12    1
     9    37    38    2
    10    16    17    1
    11    40    39    1
    12    40    41    1
    13     4     3    2
    14    26    25    2
    15    17    18    1
    16    29    30    2
    17    29    28    1
    18    12     3   am
    19    18    19    1
    20     3     2    1
    21    28    27    1
    22    28    31    1
    23    25    27   am
    24    25    24    1
    25    33    32    2
    26    19    20    2
    27    10     8   ar
    28    10    11   ar
    29     8     6   ar
    30    23    24    1
    31    31    32    1
    32     2     1    1
    33     2     5    1
    34    32    34   am
    35    11     9   ar
    36     6     5    1
    37     6     7   ar
    38    20    21    1
    39    20    22    1
    40     9     7   ar
    41   129   130    1
    42   133   130    1
    43   133   134    1
    44   135   134    1
    45   135   136    1
    46   122   121    2
    47   130   131    1
    48   137   136    1
    49    63    62    2
    50   147   145   ar
    51   147   148   ar
    52   145   143   ar
    53   149   148    1
    54   110   109    2
    55   121   120    1
    56   123   124    1
    57   123   120    1
    58    70    69    1
    59    70    71    1
    60   125   124   ar
    61   125   127   ar
    62   148   146   ar
    63   138   131   am
    64   138   139    1
    65   131   132    2
    66   116   114   ar
    67   116   117   ar
    68   114   112   ar
    69    62    61    1
    70   124   126   ar
    71   143   142    1
    72   143   144   ar
    73   120   119    1
    74   146   144   ar
    75   127   128   ar
    76   142   139    1
    77   109   119   am
    78   109   108    1
    79    72    71    2
    80   118   117    1
    81    71    73   am
    82   139   140    1
    83   117   115   ar
    84    64    61    1
    85    64    65    1
    86   112   111    1
    87   112   113   ar
    88    61    60    1
    89   126   128   ar
    90   107   108    1
    91   111   108    1
    92   140   141    2
    93    67    66   ar
    94    73    74    1
    95   115   113   ar
    96    93    94    1
    97    93    90    1
    98    54    53    2
    99    65    66    1
   100    66    68   ar
   101    60    53   am
   102    96    95    1
   103    96    97    1
   104    95    91   am
   105    53    52    1
   106    78    79    1
   107    78    77    1
   108    78    80    1
   109    77    74    1
   110    74    75    1
   111    89    90    1
   112    91    90    1
   113    91    92    2
   114    75    76    2
   115    97    98    2
   116    97    99   am
   117    52    51    1
   118    52    55    1
   119    50    48   ar
   120    59    57   ar
   121    58    57   ar
   122    57    56    1
   123    99   100    1
   124    55    56    1
   125    48    47    1
   126    48    49   ar
   127   100   101    1
   128   100   103    1
   129    47    44    1
   130    46    45    2
   131   102   101    2
   132   103   104    1
   133   106   104   am
   134    45    44    1
   135   104   105    2
   136    44    43    1
   137    88    86   ar
   138    86    87   ar
   139    86    85    1
   140    85    82    1
   141    82    83    1
   142    82    81    1
   143    83    84    2
