@<TRIPOS>MOLECULE
tmp/2jblC03.pdb
 185 178 0 0 0
SMALL
GASTEIGER

@<TRIPOS>ATOM
      1  N        117.9770   62.1360    3.1940 N.3   179  PHE179     -0.1241
      2  CA       118.3160   63.5420    3.0960 C.3   179  PHE179      0.1605
      3  C        118.9440   64.0460    4.4010 C.2   179  PHE179      0.2264
      4  O        119.8950   64.8390    4.3660 O.2   179  PHE179     -0.2867
      5  CB       117.0840   64.3630    2.7260 C.3   179  PHE179      0.0534
      6  CG       116.7830   64.3570    1.2510 C.ar  179  PHE179     -0.0203
      7  CD1      117.6400   64.9840    0.3540 C.ar  179  PHE179     -0.0042
      8  CD2      115.6530   63.7030    0.7540 C.ar  179  PHE179     -0.0042
      9  CE1      117.3780   64.9630   -1.0210 C.ar  179  PHE179     -0.0003
     10  CE2      115.3850   63.6770   -0.6160 C.ar  179  PHE179     -0.0003
     11  CZ       116.2470   64.3080   -1.5050 C.ar  179  PHE179     -0.0000
     12  N        122.5540   62.6880    4.1830 N.3   182  VAL182     -0.1245
     13  CA       123.3710   63.3310    3.1570 C.3   182  VAL182      0.1561
     14  C        123.6770   64.7680    3.5420 C.2   182  VAL182      0.2260
     15  O        124.7970   65.2470    3.3610 O.2   182  VAL182     -0.2867
     16  CB       122.6740   63.3790    1.7750 C.3   182  VAL182      0.0252
     17  CG1      123.6930   63.7460    0.7130 C.3   182  VAL182      0.0019
     18  CG2      122.0620   62.0470    1.4430 C.3   182  VAL182      0.0019
     19  N        126.3400   65.0940    6.1850 N.3   185  MET185     -0.1230
     20  CA       127.6270   64.8220    5.5600 C.3   185  MET185      0.1702
     21  C        128.1210   65.9920    4.7160 C.2   185  MET185      0.2592
     22  O        129.2780   66.4040    4.8280 O.2   185  MET185     -0.2718
     23  CB       127.5480   63.5900    4.6670 C.3   185  MET185      0.0401
     24  CG       128.8010   63.4020    3.8270 C.3   185  MET185      0.0596
     25  SD       128.5280   62.3140    2.4430 S.3   185  MET185     -0.1393
     26  CE       130.1020   62.3520    1.6070 C.3   185  MET185      0.0692
     27  N        127.2480   66.5130    3.8590 N.am  186  ALA186     -0.1980
     28  CA       127.6100   67.6210    2.9830 C.3   186  ALA186      0.1597
     29  C        128.0340   68.8660    3.7600 C.2   186  ALA186      0.2287
     30  O        128.9410   69.5770    3.3370 O.2   186  ALA186     -0.2864
     31  CB       126.4540   67.9530    2.0580 C.3   186  ALA186      0.0319
     32  N        131.4960   68.3170    4.9850 N.3   189  LEU189     -0.1231
     33  CA       132.3930   68.4320    3.8490 C.3   189  LEU189      0.1693
     34  C        132.5740   69.8840    3.4440 C.2   189  LEU189      0.2592
     35  O        133.7010   70.3150    3.1770 O.2   189  LEU189     -0.2718
     36  CB       131.8530   67.6670    2.6400 C.3   189  LEU189      0.0284
     37  CG       131.9340   66.1450    2.5670 C.3   189  LEU189      0.0019
     38  CD1      131.3190   65.6860    1.2490 C.3   189  LEU189      0.0001
     39  CD2      133.3850   65.6880    2.6710 C.3   189  LEU189      0.0001
     40  N        131.4680   70.6310    3.3740 N.am  190  HIS190     -0.1976
     41  CA       131.5380   72.0380    2.9750 C.3   190  HIS190      0.1656
     42  C        132.2630   72.8640    4.0300 C.2   190  HIS190      0.2291
     43  O        133.0780   73.7360    3.7010 O.2   190  HIS190     -0.2864
     44  CB       130.1500   72.6290    2.7410 C.3   190  HIS190      0.0771
     45  CG       130.1770   74.0900    2.4120 C.ar  190  HIS190      0.0820
     46  ND1      130.8470   74.5870    1.3140 N.ar  190  HIS190     -0.2267
     47  CD2      129.6750   75.1690    3.0660 C.ar  190  HIS190      0.1154
     48  CE1      130.7630   75.9070    1.3080 C.ar  190  HIS190      0.1986
     49  NE2      130.0580   76.2870    2.3610 N.ar  190  HIS190     -0.2212
     50  N        135.8840   71.8610    3.8590 N.3   193  LEU193     -0.1231
     51  CA       136.5500   72.3710    2.6730 C.3   193  LEU193      0.1693
     52  C        136.9530   73.8290    2.8240 C.2   193  LEU193      0.2591
     53  O        138.1060   74.1810    2.5860 O.2   193  LEU193     -0.2718
     54  CB       135.6730   72.2220    1.4300 C.3   193  LEU193      0.0284
     55  CG       136.4330   72.7380    0.2010 C.3   193  LEU193      0.0019
     56  CD1      137.5180   71.7440   -0.2150 C.3   193  LEU193      0.0001
     57  CD2      135.4720   72.9490   -0.9240 C.3   193  LEU193      0.0001
     58  N        136.0020   74.6770    3.2060 N.am  194  ILE194     -0.1980
     59  CA       136.2930   76.0940    3.3720 C.3   194  ILE194      0.1595
     60  C        137.4070   76.3240    4.3900 C.2   194  ILE194      0.2287
     61  O        138.2840   77.1620    4.1760 O.2   194  ILE194     -0.2864
     62  CB       135.0440   76.8800    3.8220 C.3   194  ILE194      0.0276
     63  CG1      134.0490   76.9950    2.6610 C.3   194  ILE194      0.0022
     64  CG2      135.4530   78.2520    4.3300 C.3   194  ILE194      0.0022
     65  CD1      134.5820   77.7400    1.4280 C.3   194  ILE194      0.0001
     66  N        139.9220   79.0820   -5.2640 N.3   209  ALA209     -0.1245
     67  CA       138.7350   78.4230   -5.7830 C.3   209  ALA209      0.1562
     68  C        139.1680   77.2440   -6.6480 C.2   209  ALA209      0.2260
     69  O        138.5330   76.1880   -6.6390 O.2   209  ALA209     -0.2867
     70  CB       137.9150   79.4010   -6.6060 C.3   209  ALA209      0.0290
     71  N        139.7410   74.2370   -4.6620 N.3   212  GLU212     -0.1231
     72  CA       138.5050   73.5880   -4.2460 C.3   212  GLU212      0.1699
     73  C        138.0630   72.6390   -5.3600 C.2   212  GLU212      0.2592
     74  O        137.6900   71.4970   -5.0900 O.2   212  GLU212     -0.2718
     75  CB       137.4040   74.6240   -3.9650 C.3   212  GLU212      0.0402
     76  CG       137.7910   75.7010   -2.9560 C.3   212  GLU212      0.1161
     77  CD       136.6560   76.6730   -2.6600 C.2   212  GLU212      0.3649
     78  OE1      135.8300   76.9270   -3.5580 O.co2 212  GLU212     -0.2457
     79  OE2      136.5990   77.2010   -1.5300 O.co2 212  GLU212     -0.2457
     80  N        138.1130   73.1090   -6.6080 N.am  213  ASN213     -0.1974
     81  CA       137.7290   72.2720   -7.7440 C.3   213  ASN213      0.1688
     82  C        138.6430   71.0580   -7.8300 C.2   213  ASN213      0.2292
     83  O        138.1820   69.9250   -7.9760 O.2   213  ASN213     -0.2864
     84  CB       137.8190   73.0390   -9.0720 C.3   213  ASN213      0.1181
     85  CG       136.6490   73.9850   -9.2910 C.2   213  ASN213      0.2629
     86  OD1      135.4920   73.6230   -9.0810 O.2   213  ASN213     -0.2716
     87  ND2      136.9470   75.2010   -9.7380 N.am  213  ASN213     -0.0877
     88  N        138.0630   68.0520   -5.0570 N.3   216  PHE216     -0.1241
     89  CA       136.9690   67.1220   -5.3120 C.3   216  PHE216      0.1605
     90  C        137.0200   66.3890   -6.6480 C.2   216  PHE216      0.2264
     91  O        136.5110   65.2670   -6.7570 O.2   216  PHE216     -0.2867
     92  CB       135.6240   67.8270   -5.1130 C.3   216  PHE216      0.0534
     93  CG       135.2480   67.9680   -3.6680 C.ar  216  PHE216     -0.0203
     94  CD1      134.9400   66.8410   -2.9110 C.ar  216  PHE216     -0.0042
     95  CD2      135.2830   69.2090   -3.0380 C.ar  216  PHE216     -0.0042
     96  CE1      134.6790   66.9440   -1.5520 C.ar  216  PHE216     -0.0003
     97  CE2      135.0230   69.3200   -1.6780 C.ar  216  PHE216     -0.0003
     98  CZ       134.7220   68.1850   -0.9360 C.ar  216  PHE216     -0.0000
     99  N        136.6260   62.5350   -5.9130 N.3   220  VAL220     -0.1245
    100  CA       135.4560   61.8240   -6.4340 C.3   220  VAL220      0.1561
    101  C        135.1800   62.0100   -7.9300 C.2   220  VAL220      0.2260
    102  O        134.1510   61.5650   -8.4310 O.2   220  VAL220     -0.2867
    103  CB       134.1680   62.1950   -5.6310 C.3   220  VAL220      0.0252
    104  CG1      134.4080   61.9770   -4.1420 C.3   220  VAL220      0.0019
    105  CG2      133.7630   63.6430   -5.9010 C.3   220  VAL220      0.0019
    106  N        134.5200   64.7680   -9.5290 N.3   222  TYR222     -0.1227
    107  CA       133.6160   65.8560   -9.8740 C.3   222  TYR222      0.1736
    108  C        133.6160   67.0090   -8.8760 C.2   222  TYR222      0.2596
    109  O        133.7640   66.8030   -7.6720 O.2   222  TYR222     -0.2718
    110  CB       132.1900   65.3160  -10.0190 C.3   222  TYR222      0.0548
    111  CG       131.1860   66.3870  -10.3710 C.ar  222  TYR222     -0.0200
    112  CD1      131.2860   67.0920  -11.5680 C.ar  222  TYR222     -0.0009
    113  CD2      130.1600   66.7280   -9.4880 C.ar  222  TYR222     -0.0009
    114  CE1      130.3910   68.1150  -11.8810 C.ar  222  TYR222      0.0417
    115  CE2      129.2600   67.7490   -9.7880 C.ar  222  TYR222      0.0417
    116  CZ       129.3840   68.4410  -10.9860 C.ar  222  TYR222      0.1957
    117  OH       128.5210   69.4710  -11.2770 O.3   222  TYR222     -0.2866
    118  N        133.4480   68.2220   -9.3950 N.am  223  SER223     -0.1938
    119  CA       133.3880   69.4250   -8.5680 C.3   223  SER223      0.2055
    120  C        132.0920   70.1470   -8.9380 C.2   223  SER223      0.2643
    121  O        131.8910   70.5230  -10.0900 O.2   223  SER223     -0.2714
    122  CB       134.5960   70.3240   -8.8400 C.3   223  SER223      0.2130
    123  OG       134.5130   71.5310   -8.1040 O.3   223  SER223     -0.2179
    124  N        131.2130   70.3400   -7.9620 N.am  224  ILE224     -0.1963
    125  CA       129.9300   70.9800   -8.2240 C.3   224  ILE224      0.1727
    126  C        129.9700   72.5050   -8.2670 C.2   224  ILE224      0.2617
    127  O        129.1020   73.1320   -8.8790 O.2   224  ILE224     -0.2715
    128  CB       128.8760   70.5190   -7.1860 C.3   224  ILE224      0.0290
    129  CG1      127.4820   70.9830   -7.6130 C.3   224  ILE224      0.0022
    130  CG2      129.2350   71.0530   -5.8010 C.3   224  ILE224      0.0023
    131  CD1      126.3580   70.3810   -6.7880 C.3   224  ILE224      0.0001
    132  N        130.9700   73.1050   -7.6270 N.am  225  GLY225     -0.1940
    133  CA       131.0650   74.5550   -7.6380 C.3   225  GLY225      0.2014
    134  C        130.6420   75.2320   -6.3400 C.2   225  GLY225      0.2638
    135  O        129.8300   74.6960   -5.5880 O.2   225  GLY225     -0.2714
    136  N        131.1820   76.4250   -6.1040 N.am  226  ALA226     -0.1977
    137  CA       130.9310   77.2120   -4.9020 C.3   226  ALA226      0.1597
    138  C        129.4750   77.6260   -4.6750 C.2   226  ALA226      0.2287
    139  O        128.8870   77.2930   -3.6410 O.2   226  ALA226     -0.2864
    140  CB       131.8350   78.4450   -4.9130 C.3   226  ALA226      0.0319
    141  N        127.0110   74.3810   -4.3620 N.3   229  ILE229     -0.1231
    142  CA       126.9300   73.5970   -3.1370 C.3   229  ILE229      0.1692
    143  C        126.0020   74.2660   -2.1290 C.2   229  ILE229      0.2592
    144  O        125.3370   73.5950   -1.3490 O.2   229  ILE229     -0.2718
    145  CB       128.3240   73.3660   -2.4930 C.3   229  ILE229      0.0266
    146  CG1      128.1910   72.3340   -1.3720 C.3   229  ILE229      0.0019
    147  CG2      128.8920   74.6700   -1.9390 C.3   229  ILE229      0.0020
    148  CD1      127.6330   70.9950   -1.8330 C.3   229  ILE229      0.0001
    149  N        125.9470   75.5910   -2.1510 N.am  230  HIS230     -0.1976
    150  CA       125.0630   76.2820   -1.2320 C.3   230  HIS230      0.1656
    151  C        123.6230   76.0630   -1.6790 C.2   230  HIS230      0.2291
    152  O        122.7240   75.9090   -0.8450 O.2   230  HIS230     -0.2864
    153  CB       125.4170   77.7730   -1.1560 C.3   230  HIS230      0.0771
    154  CG       126.7370   78.0300   -0.4980 C.ar  230  HIS230      0.0820
    155  ND1      127.9280   77.9860   -1.1850 N.ar  230  HIS230     -0.2267
    156  CD2      127.0600   78.2550    0.7990 C.ar  230  HIS230      0.1154
    157  CE1      128.9280   78.1720   -0.3410 C.ar  230  HIS230      0.1986
    158  NE2      128.4300   78.3380    0.8700 N.ar  230  HIS230     -0.2212
    159  N        122.6480   73.4380   -3.3330 N.3   232  LEU232     -0.1245
    160  CA       122.3920   72.0420   -3.0350 C.3   232  LEU232      0.1561
    161  C        122.0970   71.8150   -1.5510 C.2   232  LEU232      0.2260
    162  O        121.2230   71.0180   -1.2030 O.2   232  LEU232     -0.2867
    163  CB       123.5820   71.1750   -3.4580 C.3   232  LEU232      0.0270
    164  CG       123.3540   69.6650   -3.2790 C.3   232  LEU232      0.0019
    165  CD1      122.2090   69.2080   -4.1770 C.3   232  LEU232      0.0001
    166  CD2      124.6220   68.8920   -3.6150 C.3   232  LEU232      0.0001
    167  N        118.7130   72.6710   -0.7240 N.3   235  PHE235     -0.1227
    168  CA       117.8680   71.6570   -1.3310 C.3   235  PHE235      0.1736
    169  C        117.8250   70.3880   -0.4710 C.2   235  PHE235      0.2595
    170  O        116.7470   69.9000   -0.1320 O.2   235  PHE235     -0.2718
    171  CB       118.3910   71.3570   -2.7430 C.3   235  PHE235      0.0547
    172  CG       117.6440   70.2690   -3.4640 C.ar  235  PHE235     -0.0202
    173  CD1      118.1450   68.9680   -3.4970 C.ar  235  PHE235     -0.0042
    174  CD2      116.4490   70.5470   -4.1300 C.ar  235  PHE235     -0.0042
    175  CE1      117.4670   67.9580   -4.1880 C.ar  235  PHE235     -0.0003
    176  CE2      115.7660   69.5430   -4.8220 C.ar  235  PHE235     -0.0003
    177  CZ       116.2770   68.2490   -4.8510 C.ar  235  PHE235     -0.0000
    178  N        118.9960   69.8670   -0.1110 N.am  236  LEU236     -0.1980
    179  CA       119.0840   68.6590    0.7040 C.3   236  LEU236      0.1596
    180  C        118.4070   68.7940    2.0710 C.2   236  LEU236      0.2287
    181  O        117.7170   67.8770    2.5230 O.2   236  LEU236     -0.2864
    182  CB       120.5490   68.2640    0.9170 C.3   236  LEU236      0.0297
    183  CG       121.4110   67.8780   -0.2850 C.3   236  LEU236      0.0022
    184  CD1      122.8160   67.5210    0.1950 C.3   236  LEU236      0.0001
    185  CD2      120.7860   66.6890   -1.0090 C.3   236  LEU236      0.0001
@<TRIPOS>BOND
     1   114   112   ar
     2   114   116   ar
     3   112   111   ar
     4   117   116    1
     5   116   115   ar
     6   111   110    1
     7   111   113   ar
     8   121   120    2
     9   110   107    1
    10   107   106    1
    11   107   108    1
    12   115   113   ar
    13    87    85   am
    14   118   108   am
    15   118   119    1
    16    85    86    2
    17    85    84    1
    18    84    81    1
    19   120   119    1
    20   120   124   am
    21   127   126    2
    22   108   109    2
    23   122   119    1
    24   122   123    1
    25   102   101    2
    26   126   125    1
    27   126   132   am
    28   125   124    1
    29   125   128    1
    30    83    82    2
    31   101   100    1
    32    82    81    1
    33    81    80    1
    34   133   132    1
    35   133   134    1
    36   129   128    1
    37   129   131    1
    38   128   130    1
    39    91    90    2
    40    68    69    2
    41    68    67    1
    42    90    89    1
    43    80    73   am
    44    70    67    1
    45   100    99    1
    46   100   103    1
    47   134   136   am
    48   134   135    2
    49   136   137    1
    50   105   103    1
    51    67    66    1
    52   103   104    1
    53    73    74    2
    54    73    72    1
    55    89    92    1
    56    89    88    1
    57    92    93    1
    58   140   137    1
    59   137   138    1
    60   177   176   ar
    61   177   175   ar
    62   176   174   ar
    63   138   139    2
    64    71    72    1
    65   141   142    1
    66    72    75    1
    67   175   173   ar
    68   165   164    1
    69   174   172   ar
    70    75    76    1
    71    93    95   ar
    72    93    94   ar
    73   166   164    1
    74    78    77   ar
    75   173   172   ar
    76   172   171    1
    77   163   164    1
    78   163   160    1
    79   159   160    1
    80   142   145    1
    81   142   143    1
    82    95    97   ar
    83   160   161    1
    84    76    77    1
    85    94    96   ar
    86   171   168    1
    87    77    79   ar
    88   145   147    1
    89   145   146    1
    90   149   143   am
    91   149   150    1
    92   143   144    2
    93   148   146    1
    94   151   150    1
    95   151   152    2
    96    97    98   ar
    97    96    98   ar
    98   161   162    2
    99    11     9   ar
   100    11    10   ar
   101   168   167    1
   102   168   169    1
   103   150   153    1
   104   155   154   ar
   105   155   157   ar
   106   153   154    1
   107     9     7   ar
   108   185   183    1
   109    57    55    1
   110    10     8   ar
   111   154   156   ar
   112   169   170    2
   113   169   178   am
   114   157   158   ar
   115   183   184    1
   116   183   182    1
   117    56    55    1
   118   178   179    1
   119    55    54    1
   120     7     6   ar
   121   179   182    1
   122   179   180    1
   123    17    16    1
   124     8     6   ar
   125   156   158   ar
   126    38    37    1
   127     6     5    1
   128    48    46   ar
   129    48    49   ar
   130    46    45   ar
   131    65    63    1
   132    54    51    1
   133    18    16    1
   134    26    25    1
   135    16    13    1
   136    31    28    1
   137   180   181    2
   138    49    47   ar
   139    45    44    1
   140    45    47   ar
   141    25    24    1
   142    37    36    1
   143    37    39    1
   144    53    52    2
   145    36    33    1
   146    63    62    1
   147    51    52    1
   148    51    50    1
   149     5     2    1
   150    44    41    1
   151    52    58   am
   152    41    40    1
   153    41    42    1
   154    28    29    1
   155    28    27    1
   156     2     1    1
   157     2     3    1
   158    13    14    1
   159    13    12    1
   160    35    34    2
   161    58    59    1
   162    30    29    2
   163    15    14    2
   164    59    62    1
   165    59    60    1
   166    40    34   am
   167    34    33    1
   168    43    42    2
   169    62    64    1
   170    24    23    1
   171    33    32    1
   172    27    21   am
   173    61    60    2
   174     4     3    2
   175    23    20    1
   176    21    22    2
   177    21    20    1
   178    20    19    1
