@<TRIPOS>MOLECULE
tmp/2jbpL00.pdb
 179 167 0 0 0
SMALL
GASTEIGER

@<TRIPOS>ATOM
      1  N         -8.1210   36.6590  130.4190 N.3    25  GLN25      -0.1231
      2  CA        -8.5760   37.0380  129.0850 C.3    25  GLN25       0.1698
      3  C         -8.7200   38.5470  129.0900 C.2    25  GLN25       0.2592
      4  O         -9.3990   39.1150  129.9440 O.2    25  GLN25      -0.2718
      5  CB        -9.9170   36.3890  128.7580 C.3    25  GLN25       0.0381
      6  CG       -10.4350   36.7210  127.3780 C.3    25  GLN25       0.0905
      7  CD       -11.9090   36.4160  127.2410 C.2    25  GLN25       0.2608
      8  OE1      -12.6320   36.3450  128.2360 O.2    25  GLN25      -0.2717
      9  NE2      -12.3620   36.2300  126.0060 N.am   25  GLN25      -0.0878
     10  N         -8.0660   39.1830  128.1310 N.am   26  VAL26      -0.1966
     11  CA        -7.7210   40.5910  128.2440 C.3    26  VAL26       0.1727
     12  C         -8.7070   41.4310  127.4350 C.2    26  VAL26       0.2616
     13  O         -8.9910   41.1310  126.2790 O.2    26  VAL26      -0.2715
     14  CB        -6.2720   40.8090  127.7360 C.3    26  VAL26       0.0290
     15  CG1       -5.7490   42.1740  128.1580 C.3    26  VAL26       0.0023
     16  CG2       -5.3750   39.6950  128.2610 C.3    26  VAL26       0.0023
     17  N         -9.2400   42.4790  128.0480 N.am   27  LEU27      -0.1963
     18  CA       -10.2410   43.3090  127.3880 C.3    27  LEU27       0.1728
     19  C         -9.6840   44.6670  126.9180 C.2    27  LEU27       0.2617
     20  O        -10.4510   45.5740  126.5360 O.2    27  LEU27      -0.2715
     21  CB       -11.4160   43.5430  128.3360 C.3    27  LEU27       0.0311
     22  CG       -12.1720   42.3370  128.8830 C.3    27  LEU27       0.0022
     23  CD1      -13.1040   42.7970  129.9810 C.3    27  LEU27       0.0001
     24  CD2      -12.9420   41.6530  127.7700 C.3    27  LEU27       0.0001
     25  N         -8.3590   44.8160  126.9550 N.am   28  GLY28      -0.1940
     26  CA        -7.7610   46.0870  126.5900 C.3    28  GLY28       0.2014
     27  C         -6.6120   46.5030  127.4870 C.2    28  GLY28       0.2639
     28  O         -6.5620   46.1210  128.6570 O.2    28  GLY28      -0.2714
     29  N         -5.6900   47.2880  126.9240 N.am   29  LEU29      -0.1963
     30  CA        -4.5380   47.8250  127.6570 C.3    29  LEU29       0.1728
     31  C         -4.7150   49.3290  127.8680 C.2    29  LEU29       0.2616
     32  O         -4.9870   50.0800  126.9310 O.2    29  LEU29      -0.2715
     33  CB        -3.2310   47.5500  126.8820 C.3    29  LEU29       0.0311
     34  CG        -1.8550   47.8740  127.5010 C.3    29  LEU29       0.0022
     35  CD1       -1.5810   46.9810  128.7040 C.3    29  LEU29       0.0001
     36  CD2       -0.7660   47.6700  126.4560 C.3    29  LEU29       0.0001
     37  N         -4.5820   49.7540  129.1170 N.am   30  GLY30      -0.1955
     38  CA        -4.5740   51.1680  129.4190 C.3    30  GLY30       0.1869
     39  C         -3.1480   51.5510  129.7460 C.2    30  GLY30       0.2309
     40  O         -2.3260   50.6730  130.0340 O.2    30  GLY30      -0.2863
     41  N         -6.4700   45.8600  131.2720 N.3    35  VAL35      -0.1245
     42  CA        -7.7370   45.2890  131.7320 C.3    35  VAL35       0.1561
     43  C         -7.7590   43.7650  131.6750 C.2    35  VAL35       0.2260
     44  O         -6.9170   43.1390  131.0430 O.2    35  VAL35      -0.2867
     45  CB        -8.9400   45.8010  130.9270 C.3    35  VAL35       0.0252
     46  CG1      -10.1550   44.9500  131.2450 C.3    35  VAL35       0.0019
     47  CG2       -9.2320   47.2810  131.2730 C.3    35  VAL35       0.0019
     48  N        -10.8170   40.3750  132.2940 N.3    37  GLN37      -0.1245
     49  CA       -12.2470   40.0980  132.2890 C.3    37  GLN37       0.1566
     50  C        -12.4820   39.3340  133.5760 C.2    37  GLN37       0.2260
     51  O        -11.7070   38.4270  133.8760 O.2    37  GLN37      -0.2867
     52  CB       -12.5870   39.2290  131.0710 C.3    37  GLN37       0.0367
     53  CG       -13.9400   38.5340  131.1320 C.3    37  GLN37       0.0905
     54  CD       -15.0650   39.3790  130.5540 C.2    37  GLN37       0.2608
     55  OE1      -14.8250   40.2370  129.7030 O.2    37  GLN37      -0.2717
     56  NE2      -16.3040   39.1400  131.0100 N.am   37  GLN37      -0.0878
     57  N        -15.2730   44.0520  133.9480 N.3    48  ALA48      -0.1245
     58  CA       -13.8690   44.2520  133.6220 C.3    48  ALA48       0.1562
     59  C        -13.0730   44.8290  134.7860 C.2    48  ALA48       0.2260
     60  O        -13.5580   45.7100  135.5230 O.2    48  ALA48      -0.2867
     61  CB       -13.7500   45.1550  132.4350 C.3    48  ALA48       0.0290
     62  N         -9.3970   46.4590  136.4260 N.3    50  LYS50      -0.1245
     63  CA        -8.3100   47.3740  136.0510 C.3    50  LYS50       0.1561
     64  C         -7.2550   47.5360  137.1680 C.2    50  LYS50       0.2260
     65  O         -7.5070   48.2030  138.1650 O.2    50  LYS50      -0.2867
     66  CB        -8.9080   48.7500  135.6880 C.3    50  LYS50       0.0271
     67  CG        -7.9260   49.9200  135.8270 C.3    50  LYS50       0.0035
     68  CD        -8.0420   50.9760  134.7120 C.3    50  LYS50       0.0206
     69  CE        -6.8950   50.8470  133.6870 C.3    50  LYS50       0.1093
     70  NZ        -6.7920   52.0380  132.7900 N.3    50  LYS50      -0.1314
     71  N         -6.9560   58.9170  139.1430 N.3    61  GLU61      -0.1245
     72  CA        -7.8690   58.2780  138.2200 C.3    61  GLU61       0.1567
     73  C         -9.1280   57.9430  139.0360 C.2    61  GLU61       0.2260
     74  O        -10.1890   58.5370  138.8240 O.2    61  GLU61      -0.2867
     75  CB        -7.2570   57.0160  137.5670 C.3    61  GLU61       0.0388
     76  CG        -8.2350   56.3330  136.5650 C.3    61  GLU61       0.1160
     77  CD        -7.5790   55.3990  135.5360 C.2    61  GLU61       0.3649
     78  OE1       -8.3520   54.7260  134.7950 O.co2  61  GLU61      -0.2457
     79  OE2       -6.3220   55.3400  135.4710 O.co2  61  GLU61      -0.2457
     80  N        -12.4620   59.4300  138.0060 N.3    65  HIS65      -0.1241
     81  CA       -13.2700   58.4740  137.2400 C.3    65  HIS65       0.1621
     82  C        -14.4820   58.0540  138.0210 C.2    65  HIS65       0.2264
     83  O        -15.3960   57.5130  137.4620 O.2    65  HIS65      -0.2867
     84  CB       -12.4520   57.2250  136.8990 C.3    65  HIS65       0.0745
     85  CG       -13.1200   56.2900  135.9380 C.ar   65  HIS65       0.0817
     86  ND1      -12.4090   55.3580  135.2050 N.ar   65  HIS65      -0.2268
     87  CD2      -14.4240   56.1230  135.6040 C.ar   65  HIS65       0.1154
     88  CE1      -13.2480   54.6560  134.4670 C.ar   65  HIS65       0.1986
     89  NE2      -14.4760   55.0990  134.6930 N.ar   65  HIS65      -0.2212
     90  N        -18.5450   55.2560  131.3690 N.3    75  VAL75      -0.1245
     91  CA       -18.4840   53.8870  131.8560 C.3    75  VAL75       0.1561
     92  C        -18.4230   53.7870  133.3770 C.2    75  VAL75       0.2260
     93  O        -17.5110   54.3420  134.0040 O.2    75  VAL75      -0.2867
     94  CB       -17.2680   53.2110  131.3290 C.3    75  VAL75       0.0252
     95  CG1      -16.1040   54.1080  131.5730 C.3    75  VAL75       0.0019
     96  CG2      -17.0780   51.8660  132.0240 C.3    75  VAL75       0.0019
     97  N        -15.0890   47.5470  136.7870 N.3    95  MET95      -0.1230
     98  CA       -16.0090   48.3250  135.9780 C.3    95  MET95       0.1702
     99  C        -16.9260   47.5050  135.0770 C.2    95  MET95       0.2592
    100  O        -16.5630   46.4010  134.6560 O.2    95  MET95      -0.2718
    101  CB       -15.2360   49.3460  135.1520 C.3    95  MET95       0.0401
    102  CG       -13.8930   48.8830  134.6870 C.3    95  MET95       0.0596
    103  SD       -13.0530   50.3380  134.0850 S.3    95  MET95      -0.1393
    104  CE       -13.5070   51.5020  135.3680 C.3    95  MET95       0.0692
    105  N        -18.1060   48.0730  134.7930 N.am   96  GLU96      -0.1966
    106  CA       -19.1280   47.4660  133.9390 C.3    96  GLU96       0.1733
    107  C        -18.4830   46.9740  132.6740 C.2    96  GLU96       0.2616
    108  O        -17.5240   47.5770  132.1730 O.2    96  GLU96      -0.2715
    109  CB       -20.2250   48.4760  133.5800 C.3    96  GLU96       0.0429
    110  CG       -19.9700   49.3210  132.3300 C.3    96  GLU96       0.1163
    111  CD       -21.2010   50.1260  131.8920 C.2    96  GLU96       0.3649
    112  OE1      -21.1480   51.3720  131.9520 O.co2  96  GLU96      -0.2457
    113  OE2      -22.2220   49.5220  131.4840 O.co2  96  GLU96      -0.2457
    114  N        -18.9930   45.8670  132.1560 N.am   97  CYS97      -0.1954
    115  CA       -18.3020   45.2410  131.0540 C.3    97  CYS97       0.1843
    116  C        -18.8610   45.7060  129.7300 C.2    97  CYS97       0.2625
    117  O        -20.0530   45.5250  129.4530 O.2    97  CYS97      -0.2714
    118  CB       -18.3950   43.7320  131.1510 C.3    97  CYS97       0.0997
    119  SG       -17.2060   43.0150  130.0550 S.3    97  CYS97      -0.0797
    120  N        -17.9970   46.3180  128.9210 N.am   98  LEU98      -0.1963
    121  CA       -18.4090   46.8810  127.6380 C.3    98  LEU98       0.1728
    122  C        -17.8990   45.9970  126.4990 C.2    98  LEU98       0.2616
    123  O        -16.9550   46.3400  125.7660 O.2    98  LEU98      -0.2715
    124  CB       -17.9050   48.3340  127.4900 C.3    98  LEU98       0.0311
    125  CG       -18.4310   49.3610  128.5230 C.3    98  LEU98       0.0022
    126  CD1      -18.1380   50.7800  128.0800 C.3    98  LEU98       0.0001
    127  CD2      -19.9210   49.1930  128.7190 C.3    98  LEU98       0.0001
    128  N        -18.5480   44.8400  126.3860 N.am   99  ASP99      -0.1971
    129  CA       -18.1610   43.7950  125.4530 C.3    99  ASP99       0.1709
    130  C        -18.3980   44.3120  124.0640 C.2    99  ASP99       0.2293
    131  O        -17.8600   43.7740  123.1000 O.2    99  ASP99      -0.2864
    132  CB       -18.9990   42.5330  125.6870 C.3    99  ASP99       0.1436
    133  CG       -20.4800   42.8390  125.9100 C.2    99  ASP99       0.3671
    134  OD1      -20.8130   43.6650  126.7930 O.co2  99  ASP99      -0.2456
    135  OD2      -21.3190   42.2440  125.2030 O.co2  99  ASP99      -0.2456
    136  N        -17.4540   46.4160  122.0100 N.3   101  GLY101     -0.1225
    137  CA       -16.4380   46.7830  121.0330 C.3   101  GLY101      0.1811
    138  C        -16.2680   48.2880  120.8700 C.2   101  GLY101      0.2280
    139  O        -17.1220   49.0740  121.3100 O.2   101  GLY101     -0.2866
    140  N        -10.3710   54.1480  121.0090 N.3   145  GLU145     -0.1231
    141  CA       -10.1970   52.9840  121.8820 C.3   145  GLU145      0.1699
    142  C        -10.8650   53.1940  123.2350 C.2   145  GLU145      0.2592
    143  O        -11.0660   52.2430  124.0040 O.2   145  GLU145     -0.2718
    144  CB        -8.7060   52.6920  122.1070 C.3   145  GLU145      0.0402
    145  CG        -7.9060   52.5440  120.8310 C.3   145  GLU145      0.1161
    146  CD        -7.3230   53.8660  120.3470 C.2   145  GLU145      0.3649
    147  OE1       -8.0340   54.8990  120.4320 O.co2 145  GLU145     -0.2457
    148  OE2       -6.1500   53.8650  119.8870 O.co2 145  GLU145     -0.2457
    149  N        -11.2030   54.4500  123.5170 N.am  146  ASN146     -0.1974
    150  CA       -11.7810   54.8170  124.7990 C.3   146  ASN146      0.1688
    151  C        -13.2900   55.0810  124.6690 C.2   146  ASN146      0.2292
    152  O        -13.9300   55.5660  125.6100 O.2   146  ASN146     -0.2864
    153  CB       -11.0450   56.0450  125.3740 C.3   146  ASN146      0.1181
    154  CG        -9.5350   55.7960  125.6080 C.2   146  ASN146      0.2629
    155  OD1       -8.8240   56.6680  126.1110 O.2   146  ASN146     -0.2716
    156  ND2       -9.0530   54.6060  125.2390 N.am  146  ASN146     -0.0877
    157  N        -16.7910   52.8880  123.8270 N.3   148  LEU148     -0.1245
    158  CA       -17.2990   51.5390  123.6100 C.3   148  LEU148      0.1561
    159  C        -18.7840   51.4140  123.8300 C.2   148  LEU148      0.2260
    160  O        -19.4170   52.2550  124.4850 O.2   148  LEU148     -0.2867
    161  CB       -16.6410   50.5290  124.5340 C.3   148  LEU148      0.0270
    162  CG       -15.1720   50.5280  124.9150 C.3   148  LEU148      0.0019
    163  CD1      -14.9900   49.1520  125.5430 C.3   148  LEU148      0.0001
    164  CD2      -14.1800   50.7510  123.7350 C.3   148  LEU148      0.0001
    165  N        -14.3230   55.6910  128.1580 N.3   161  THR161     -0.1203
    166  CA       -13.4550   55.1380  129.2220 C.3   161  THR161      0.1994
    167  C        -12.0880   55.8170  129.4330 C.2   161  THR161      0.2617
    168  O        -11.9120   56.9610  129.0790 O.2   161  THR161     -0.2717
    169  CB       -13.1590   53.6100  129.0170 C.3   161  THR161      0.1784
    170  OG1      -12.8580   53.3470  127.6410 O.3   161  THR161     -0.2211
    171  CG2      -14.3130   52.7460  129.4860 C.3   161  THR161      0.0376
    172  N        -11.1440   55.0650  130.0150 N.am  162  ASP162     -0.1973
    173  CA        -9.7660   55.4570  130.3920 C.3   162  ASP162      0.1709
    174  C         -9.5270   56.8690  130.9020 C.2   162  ASP162      0.2293
    175  O         -9.5670   57.8350  130.1450 O.2   162  ASP162     -0.2864
    176  CB        -8.7710   55.1710  129.2520 C.3   162  ASP162      0.1436
    177  CG        -7.3040   55.2220  129.7200 C.2   162  ASP162      0.3671
    178  OD1       -7.0650   55.1760  130.9480 O.co2 162  ASP162     -0.2456
    179  OD2       -6.3850   55.3110  128.8690 O.co2 162  ASP162     -0.2456
@<TRIPOS>BOND
     1   148   146   ar
     2   146   147   ar
     3   146   145    1
     4   145   144    1
     5   138   137    1
     6   138   139    2
     7   140   141    1
     8   137   136    1
     9   141   144    1
    10   141   142    1
    11   131   130    2
    12   142   149   am
    13   142   143    2
    14   149   150    1
    15   158   157    1
    16   158   159    1
    17   158   161    1
    18   164   162    1
    19   159   160    2
    20   130   129    1
    21   161   162    1
    22   151   150    1
    23   151   152    2
    24   150   153    1
    25   162   163    1
    26   135   133   ar
    27   156   154   am
    28   153   154    1
    29   129   132    1
    30   129   128    1
    31   154   155    2
    32   132   133    1
    33   123   122    2
    34   133   134   ar
    35     9     7   am
    36    13    12    2
    37   128   122   am
    38    36    34    1
    39   122   121    1
    40    20    19    2
    41    26    25    1
    42    26    27    1
    43    33    34    1
    44    33    30    1
    45    19    25   am
    46    19    18    1
    47    29    27   am
    48    29    30    1
    49    32    31    2
    50     7     6    1
    51     7     8    2
    52     6     5    1
    53    18    17    1
    54    18    21    1
    55    12    17   am
    56    12    11    1
    57    27    28    2
    58   124   121    1
    59   124   125    1
    60    34    35    1
    61   121   120    1
    62   170   169    1
    63    30    31    1
    64    14    15    1
    65    14    11    1
    66    14    16    1
    67    24    22    1
    68    31    37   am
    69   126   125    1
    70    10    11    1
    71    10     3   am
    72   165   166    1
    73    21    22    1
    74   125   127    1
    75     5     2    1
    76   179   177   ar
    77    22    23    1
    78   120   116   am
    79   169   166    1
    80   169   171    1
    81   168   167    2
    82     2     3    1
    83     2     1    1
    84     3     4    2
    85    37    38    1
    86   166   167    1
    87   176   177    1
    88   176   173    1
    89    38    39    1
    90   167   172   am
    91   117   116    2
    92    55    54    2
    93   177   178   ar
    94   116   115    1
    95    39    40    2
    96   172   173    1
    97   119   118    1
    98   175   174    2
    99   173   174    1
   100    54    56   am
   101    54    53    1
   102    45    46    1
   103    45    47    1
   104    45    42    1
   105    44    43    2
   106   115   118    1
   107   115   114    1
   108    52    53    1
   109    52    49    1
   110    41    42    1
   111    94    95    1
   112    94    91    1
   113    94    96    1
   114    90    91    1
   115   113   111   ar
   116    43    42    1
   117    91    92    1
   118   111   112   ar
   119   111   110    1
   120   114   107   am
   121   108   107    2
   122    49    48    1
   123    49    50    1
   124   110   109    1
   125    61    58    1
   126   107   106    1
   127    70    69    1
   128    92    93    2
   129    50    51    2
   130   109   106    1
   131    58    57    1
   132    58    59    1
   133    69    68    1
   134   106   105    1
   135   103   102    1
   136   103   104    1
   137    88    89   ar
   138    88    86   ar
   139   100    99    2
   140   102   101    1
   141    89    87   ar
   142    68    67    1
   143    59    60    2
   144   105    99   am
   145    78    77   ar
   146    99    98    1
   147   101    98    1
   148    86    85   ar
   149    79    77   ar
   150    77    76    1
   151    87    85   ar
   152    66    67    1
   153    66    63    1
   154    85    84    1
   155    98    97    1
   156    63    62    1
   157    63    64    1
   158    76    75    1
   159    84    81    1
   160    64    65    2
   161    81    80    1
   162    81    82    1
   163    83    82    2
   164    75    72    1
   165    72    73    1
   166    72    71    1
   167    74    73    2
