@<TRIPOS>MOLECULE
tmp/2jbpB00.pdb
 172 160 0 0 0
SMALL
GASTEIGER

@<TRIPOS>ATOM
      1  N         18.6190  126.6470  170.6210 N.3    25  LEU25      -0.1231
      2  CA        17.8540  126.3890  171.8430 C.3    25  LEU25       0.1693
      3  C         17.5450  124.8770  172.0280 C.2    25  LEU25       0.2593
      4  O         16.5420  124.4860  172.6490 O.2    25  LEU25      -0.2718
      5  CB        16.5690  127.2590  171.8710 C.3    25  LEU25       0.0284
      6  CG        15.8230  127.5880  170.5670 C.3    25  LEU25       0.0019
      7  CD1       15.0970  126.3470  170.0470 C.3    25  LEU25       0.0001
      8  CD2       14.8300  128.7140  170.7960 C.3    25  LEU25       0.0001
      9  N         18.4440  124.0450  171.4870 N.am   26  GLY26      -0.1942
     10  CA        18.4720  122.6190  171.7930 C.3    26  GLY26       0.2014
     11  C         18.9750  121.7250  170.6630 C.2    26  GLY26       0.2639
     12  O         18.8670  122.0810  169.4910 O.2    26  GLY26      -0.2714
     13  N         19.5130  120.5540  171.0040 N.am   27  LEU27      -0.1963
     14  CA        19.9100  119.5680  169.9890 C.3    27  LEU27       0.1728
     15  C         19.0620  118.2950  169.9220 C.2    27  LEU27       0.2616
     16  O         18.6530  117.7340  170.9490 O.2    27  LEU27      -0.2715
     17  CB        21.3780  119.1740  170.1700 C.3    27  LEU27       0.0311
     18  CG        22.2900  120.3020  169.7130 C.3    27  LEU27       0.0022
     19  CD1       22.7340  121.1130  170.9160 C.3    27  LEU27       0.0001
     20  CD2       23.4640  119.7380  168.9700 C.3    27  LEU27       0.0001
     21  N         18.8130  117.8460  168.6920 N.am   28  GLY28      -0.1955
     22  CA        18.0360  116.6420  168.4810 C.3    28  GLY28       0.1869
     23  C         18.8930  115.4960  167.9820 C.2    28  GLY28       0.2309
     24  O         20.0760  115.6720  167.6860 O.2    28  GLY28      -0.2863
     25  N         18.1720  122.8250  166.8540 N.3    33  VAL33      -0.1245
     26  CA        17.0220  123.6980  166.8150 C.3    33  VAL33       0.1561
     27  C         17.5560  125.0810  167.0480 C.2    33  VAL33       0.2260
     28  O         18.3390  125.3160  167.9650 O.2    33  VAL33      -0.2867
     29  CB        16.0420  123.4210  167.9670 C.3    33  VAL33       0.0252
     30  CG1       14.7420  124.2160  167.7700 C.3    33  VAL33       0.0019
     31  CG2       15.7840  121.9570  168.0730 C.3    33  VAL33       0.0019
     32  N         16.4680  129.3330  167.3320 N.3    35  GLN35      -0.1245
     33  CA        15.4540  130.3560  167.6080 C.3    35  GLN35       0.1566
     34  C         15.2020  131.1240  166.3240 C.2    35  GLN35       0.2260
     35  O         16.1420  131.4540  165.6390 O.2    35  GLN35      -0.2867
     36  CB        15.9820  131.3260  168.6540 C.3    35  GLN35       0.0367
     37  CG        15.0170  132.4010  169.0220 C.3    35  GLN35       0.0905
     38  CD        14.1750  132.0170  170.2160 C.2    35  GLN35       0.2608
     39  OE1       14.6310  132.1000  171.3580 O.2    35  GLN35      -0.2717
     40  NE2       12.9410  131.5930  169.9620 N.am   35  GLN35      -0.0878
     41  N         10.6520  128.0500  167.1460 N.3    46  ALA46      -0.1245
     42  CA        11.8250  127.2140  167.1480 C.3    46  ALA46       0.1562
     43  C         11.8820  126.5840  165.7890 C.2    46  ALA46       0.2260
     44  O         10.8520  126.1890  165.2270 O.2    46  ALA46      -0.2867
     45  CB        11.7090  126.1500  168.2310 C.3    46  ALA46       0.0290
     46  N         13.7130  123.4970  163.5000 N.3    48  LYS48      -0.1245
     47  CA        14.5330  122.2890  163.4660 C.3    48  LYS48       0.1561
     48  C         14.7950  121.9900  162.0010 C.2    48  LYS48       0.2260
     49  O         13.8460  121.9710  161.2120 O.2    48  LYS48      -0.2867
     50  CB        13.7740  121.1120  164.0800 C.3    48  LYS48       0.0271
     51  CG        14.5930  119.8430  164.2010 C.3    48  LYS48       0.0035
     52  CD        13.7500  118.6740  164.6720 C.3    48  LYS48       0.0206
     53  CE        14.4380  117.9560  165.8340 C.3    48  LYS48       0.1093
     54  NZ        14.2700  116.4520  165.8170 N.3    48  LYS48      -0.1314
     55  N          9.7640  111.5120  160.7400 N.3    59  GLU59      -0.1245
     56  CA         9.6600  112.3380  161.9290 C.3    59  GLU59       0.1567
     57  C          8.5490  113.3260  161.6640 C.2    59  GLU59       0.2260
     58  O          7.6030  113.4070  162.4140 O.2    59  GLU59      -0.2867
     59  CB        10.9790  113.0830  162.2010 C.3    59  GLU59       0.0388
     60  CG        10.9650  113.8960  163.4720 C.3    59  GLU59       0.1160
     61  CD        12.3230  114.5510  163.8610 C.2    59  GLU59       0.3649
     62  OE1       12.2750  115.6390  164.4800 O.co2  59  GLU59      -0.2457
     63  OE2       13.4220  114.0020  163.5830 O.co2  59  GLU59      -0.2457
     64  N          5.1360  113.2480  163.7520 N.3    63  HIS63      -0.1241
     65  CA         4.9880  114.3750  164.6550 C.3    63  HIS63       0.1621
     66  C          3.7990  115.1990  164.2620 C.2    63  HIS63       0.2264
     67  O          3.0430  115.6190  165.1080 O.2    63  HIS63      -0.2867
     68  CB         6.2460  115.2460  164.6190 C.3    63  HIS63       0.0745
     69  CG         6.3030  116.2960  165.6850 C.ar   63  HIS63       0.0817
     70  ND1        7.4930  116.8320  166.1340 N.ar   63  HIS63      -0.2268
     71  CD2        5.3220  116.9590  166.3400 C.ar   63  HIS63       0.1154
     72  CE1        7.2430  117.7870  167.0080 C.ar   63  HIS63       0.1986
     73  NE2        5.9330  117.8820  167.1530 N.ar   63  HIS63      -0.2212
     74  N          4.4790  119.0890  171.5550 N.3    73  VAL73      -0.1245
     75  CA         4.8550  120.3930  171.0180 C.3    73  VAL73       0.1561
     76  C          4.3050  120.6060  169.6240 C.2    73  VAL73       0.2260
     77  O          4.5350  119.7800  168.7490 O.2    73  VAL73      -0.2867
     78  CB         6.3760  120.5570  170.9500 C.3    73  VAL73       0.0252
     79  CG1        6.9750  119.4860  170.0790 C.3    73  VAL73       0.0019
     80  CG2        6.7110  121.9000  170.4340 C.3    73  VAL73       0.0019
     81  N          8.2220  125.0540  164.8030 N.3    93  MET93      -0.1230
     82  CA         7.3060  124.6770  165.8780 C.3    93  MET93       0.1702
     83  C          7.2010  125.7770  166.8930 C.2    93  MET93       0.2592
     84  O          8.0800  126.6300  166.9600 O.2    93  MET93      -0.2718
     85  CB         7.7420  123.3750  166.5570 C.3    93  MET93       0.0401
     86  CG         9.1970  123.3040  166.9100 C.3    93  MET93       0.0596
     87  SD         9.7140  121.5820  167.0930 S.3    93  MET93      -0.1393
     88  CE        10.4570  121.3400  165.6750 C.3    93  MET93       0.0692
     89  N          6.1180  125.7590  167.6650 N.am   94  GLU94      -0.1966
     90  CA         5.9000  126.7700  168.6900 C.3    94  GLU94       0.1733
     91  C          7.1440  126.8000  169.5370 C.2    94  GLU94       0.2616
     92  O          8.0080  125.9330  169.4150 O.2    94  GLU94      -0.2715
     93  CB         4.6890  126.4370  169.5610 C.3    94  GLU94       0.0429
     94  CG         4.9650  125.4710  170.6870 C.3    94  GLU94       0.1163
     95  CD         3.7010  124.9300  171.2880 C.2    94  GLU94       0.3649
     96  OE1        3.4800  123.6980  171.2200 O.co2  94  GLU94      -0.2457
     97  OE2        2.9220  125.7430  171.8300 O.co2  94  GLU94      -0.2457
     98  N          7.2600  127.8110  170.3760 N.am   95  CYS95      -0.1954
     99  CA         8.5080  128.0320  171.0820 C.3    95  CYS95       0.1843
    100  C          8.3020  127.6910  172.5360 C.2    95  CYS95       0.2625
    101  O          7.4030  128.2350  173.1830 O.2    95  CYS95      -0.2714
    102  CB         8.9350  129.4950  170.9430 C.3    95  CYS95       0.0997
    103  SG        10.5120  129.8730  171.7290 S.3    95  CYS95      -0.0797
    104  N          9.1150  126.7860  173.0630 N.am   96  LEU96      -0.1963
    105  CA         8.9090  126.3750  174.4320 C.3    96  LEU96       0.1728
    106  C          9.9470  127.0690  175.2810 C.2    96  LEU96       0.2616
    107  O         10.9800  126.5040  175.5670 O.2    96  LEU96      -0.2715
    108  CB         9.0350  124.8560  174.5470 C.3    96  LEU96       0.0311
    109  CG         8.0620  124.0730  173.6640 C.3    96  LEU96       0.0022
    110  CD1        8.3920  122.6020  173.7760 C.3    96  LEU96       0.0001
    111  CD2        6.6120  124.3520  174.0650 C.3    96  LEU96       0.0001
    112  N          9.6830  128.3000  175.6860 N.am   97  ASP97      -0.1971
    113  CA        10.7000  129.0750  176.3750 C.3    97  ASP97       0.1709
    114  C         10.8250  128.7260  177.8520 C.2    97  ASP97       0.2293
    115  O         11.8800  128.9580  178.4540 O.2    97  ASP97      -0.2864
    116  CB        10.4150  130.5660  176.2110 C.3    97  ASP97       0.1436
    117  CG         8.9380  130.8870  176.3120 C.2    97  ASP97       0.3671
    118  OD1        8.2470  130.9410  175.2640 O.co2  97  ASP97      -0.2456
    119  OD2        8.4710  131.0850  177.4520 O.co2  97  ASP97      -0.2456
    120  N         11.5970  126.2990  179.7210 N.3    99  GLY99      -0.1210
    121  CA        12.5220  125.3930  180.3650 C.3    99  GLY99       0.1956
    122  C         12.1560  123.9200  180.3820 C.2    99  GLY99       0.2611
    123  O         10.9760  123.5230  180.3070 O.2    99  GLY99      -0.2717
    124  N         13.2070  123.1070  180.4670 N.am  100  GLU100     -0.1979
    125  CA        13.0730  121.6790  180.7100 C.3   100  GLU100      0.1602
    126  C         12.4080  121.4910  182.0550 C.2   100  GLU100      0.2287
    127  O         12.6710  122.2560  182.9860 O.2   100  GLU100     -0.2864
    128  CB        14.4230  120.9950  180.8100 C.3   100  GLU100      0.0415
    129  CG        15.3120  121.0770  179.6240 C.3   100  GLU100      0.1163
    130  CD        16.4420  120.0800  179.7680 C.2   100  GLU100      0.3649
    131  OE1       17.1680  119.8460  178.7750 O.co2 100  GLU100     -0.2457
    132  OE2       16.5890  119.5280  180.8930 O.co2 100  GLU100     -0.2457
    133  N         15.1070  115.7470  179.0650 N.3   145  GLU145     -0.1231
    134  CA        15.4780  116.8040  178.1400 C.3   145  GLU145      0.1699
    135  C         14.4300  117.0050  177.0540 C.2   145  GLU145      0.2592
    136  O         14.5110  117.9680  176.2980 O.2   145  GLU145     -0.2718
    137  CB        16.8180  116.4920  177.4880 C.3   145  GLU145      0.0402
    138  CG        17.8890  116.0380  178.4400 C.3   145  GLU145      0.1161
    139  CD        17.7290  114.5740  178.8260 C.2   145  GLU145      0.3649
    140  OE1       17.0590  114.2910  179.8550 O.co2 145  GLU145     -0.2457
    141  OE2       18.2760  113.7100  178.0940 O.co2 145  GLU145     -0.2457
    142  N         13.4510  116.1020  176.9620 N.am  146  ASN146     -0.1974
    143  CA        12.4440  116.1940  175.9100 C.3   146  ASN146      0.1688
    144  C         11.0980  116.6870  176.4340 C.2   146  ASN146      0.2292
    145  O         10.0680  116.6490  175.7420 O.2   146  ASN146     -0.2864
    146  CB        12.3110  114.8400  175.2230 C.3   146  ASN146      0.1181
    147  CG        13.3220  114.6600  174.1370 C.2   146  ASN146      0.2629
    148  OD1       13.7120  113.5460  173.8150 O.2   146  ASN146     -0.2716
    149  ND2       13.7680  115.7730  173.5610 N.am  146  ASN146     -0.0877
    150  N          9.5200  120.0020  177.7860 N.3   148  LEU148     -0.1245
    151  CA         9.7110  121.4370  178.0290 C.3   148  LEU148      0.1561
    152  C          8.4310  122.0590  178.3850 C.2   148  LEU148      0.2260
    153  O          7.3510  121.5710  177.9700 O.2   148  LEU148     -0.2867
    154  CB        10.2160  122.1750  176.8140 C.3   148  LEU148      0.0270
    155  CG        11.3990  121.3690  176.3660 C.3   148  LEU148      0.0019
    156  CD1       12.0080  122.1000  175.2330 C.3   148  LEU148      0.0001
    157  CD2       12.3540  121.1420  177.5400 C.3   148  LEU148      0.0001
    158  N          8.6940  116.4090  173.1880 N.3   161  THR161     -0.1203
    159  CA         9.2680  116.8240  171.9070 C.3   161  THR161      0.1994
    160  C         10.1070  115.7400  171.3040 C.2   161  THR161      0.2617
    161  O         10.3320  114.7350  171.9330 O.2   161  THR161     -0.2717
    162  CB        10.1900  118.0390  172.0530 C.3   161  THR161      0.1784
    163  OG1       11.2480  117.7370  172.9810 O.3   161  THR161     -0.2211
    164  CG2        9.4070  119.2490  172.5220 C.3   161  THR161      0.0376
    165  N         10.5840  115.9680  170.0870 N.am  162  ASP162     -0.1973
    166  CA        11.5970  115.1190  169.4570 C.3   162  ASP162      0.1709
    167  C         11.0810  113.7660  168.9790 C.2   162  ASP162      0.2293
    168  O         11.2080  112.7510  169.6660 O.2   162  ASP162     -0.2864
    169  CB        12.7570  114.8890  170.4170 C.3   162  ASP162      0.1436
    170  CG        14.0340  114.4850  169.7080 C.2   162  ASP162      0.3671
    171  OD1       14.0550  114.5420  168.4580 O.co2 162  ASP162     -0.2456
    172  OD2       15.0180  114.1130  170.4040 O.co2 162  ASP162     -0.2456
@<TRIPOS>BOND
     1    55    56    1
     2    49    48    2
     3    57    56    1
     4    57    58    2
     5    56    59    1
     6    48    47    1
     7    59    60    1
     8    47    46    1
     9    47    50    1
    10    60    61    1
    11    63    61   ar
    12    64    65    1
    13    61    62   ar
    14    50    51    1
    15    51    52    1
    16    66    65    1
    17    66    67    2
    18    68    65    1
    19    68    69    1
    20    52    53    1
    21    81    82    1
    22    44    43    2
    23    35    34    2
    24    88    87    1
    25    69    70   ar
    26    69    71   ar
    27    43    42    1
    28    54    53    1
    29    82    85    1
    30    82    83    1
    31    70    72   ar
    32    34    33    1
    33    71    73   ar
    34    85    86    1
    35    26    25    1
    36    26    27    1
    37    26    29    1
    38    83    84    2
    39    83    89   am
    40    86    87    1
    41    72    73   ar
    42    27    28    2
    43    41    42    1
    44    42    45    1
    45    32    33    1
    46    33    36    1
    47    89    90    1
    48    24    23    2
    49    30    29    1
    50    29    31    1
    51    23    22    1
    52   171   170   ar
    53    22    21    1
    54    36    37    1
    55    90    91    1
    56    90    93    1
    57    21    15   am
    58    77    76    2
    59    20    18    1
    60   167   166    1
    61   167   168    2
    62    37    38    1
    63    92    91    2
    64   166   165    1
    65   166   169    1
    66    12    11    2
    67    91    98   am
    68    93    94    1
    69    76    75    1
    70   170   172   ar
    71   170   169    1
    72    18    17    1
    73    18    19    1
    74    15    14    1
    75    15    16    2
    76    40    38   am
    77    14    17    1
    78    14    13    1
    79     7     6    1
    80    79    78    1
    81   165   160   am
    82    38    39    2
    83    98    99    1
    84    80    78    1
    85     6     8    1
    86     6     5    1
    87     1     2    1
    88    11    13   am
    89    11    10    1
    90    94    95    1
    91   102    99    1
    92   102   103    1
    93    78    75    1
    94    75    74    1
    95    99   100    1
    96    96    95   ar
    97    95    97   ar
    98   160   159    1
    99   160   161    2
   100     9    10    1
   101     9     3   am
   102     2     5    1
   103     2     3    1
   104   159   162    1
   105   159   158    1
   106     3     4    2
   107   162   164    1
   108   162   163    1
   109   100   104   am
   110   100   101    2
   111   104   105    1
   112   149   147   am
   113   109   110    1
   114   109   111    1
   115   109   108    1
   116   148   147    2
   117   147   146    1
   118   105   108    1
   119   105   106    1
   120   146   143    1
   121   156   155    1
   122   118   117   ar
   123   106   107    2
   124   106   112   am
   125   112   113    1
   126   145   144    2
   127   143   144    1
   128   143   142    1
   129   116   117    1
   130   116   113    1
   131   136   135    2
   132   117   119   ar
   133   155   154    1
   134   155   157    1
   135   113   114    1
   136   154   151    1
   137   142   135   am
   138   135   134    1
   139   137   134    1
   140   137   138    1
   141   150   151    1
   142   114   115    2
   143   153   152    2
   144   151   152    1
   145   141   139   ar
   146   134   133    1
   147   138   139    1
   148   131   130   ar
   149   139   140   ar
   150   129   130    1
   151   129   128    1
   152   120   121    1
   153   130   132   ar
   154   123   122    2
   155   121   122    1
   156   122   124   am
   157   124   125    1
   158   125   128    1
   159   125   126    1
   160   126   127    2
