@<TRIPOS>MOLECULE
tmp/2jbsD01.pdb
 182 179 0 0 0
SMALL
GASTEIGER

@<TRIPOS>ATOM
      1  N         31.3650   14.6610   55.4620 N.3    90  TRP90      -0.1241
      2  CA        30.0830   13.9780   55.4890 C.3    90  TRP90       0.1605
      3  C         30.1970   12.5900   56.0150 C.2    90  TRP90       0.2264
      4  O         29.4160   12.1820   56.8590 O.2    90  TRP90      -0.2867
      5  CB        29.5730   13.8670   54.0910 C.3    90  TRP90       0.0550
      6  CG        28.3110   13.1090   53.9250 C.ar   90  TRP90       0.0003
      7  CD1       28.1460   11.7780   54.0510 C.ar   90  TRP90       0.0946
      8  CD2       27.0480   13.6370   53.4990 C.ar   90  TRP90       0.0152
      9  NE1       26.8500   11.4310   53.7500 N.ar   90  TRP90      -0.2442
     10  CE2       26.1590   12.5540   53.4000 C.ar   90  TRP90       0.0810
     11  CE3       26.5890   14.9180   53.1860 C.ar   90  TRP90       0.0012
     12  CZ2       24.8260   12.7090   53.0200 C.ar   90  TRP90       0.0191
     13  CZ3       25.2680   15.0750   52.8090 C.ar   90  TRP90       0.0001
     14  CH2       24.3960   13.9850   52.7350 C.ar   90  TRP90       0.0015
     15  N         29.1030   11.1830   59.9720 N.3    94  LEU94      -0.1245
     16  CA        28.2040   10.0690   60.2550 C.3    94  LEU94       0.1561
     17  C         28.8310    9.0800   61.2240 C.2    94  LEU94       0.2260
     18  O         28.2110    8.6840   62.2220 O.2    94  LEU94      -0.2867
     19  CB        27.7150    9.3930   58.9770 C.3    94  LEU94       0.0270
     20  CG        26.5650   10.1410   58.3030 C.3    94  LEU94       0.0019
     21  CD1       26.2840    9.5820   56.9660 C.3    94  LEU94       0.0001
     22  CD2       25.3090   10.0830   59.1340 C.3    94  LEU94       0.0001
     23  N         26.9870    8.5020   64.9530 N.3    98  HIS98      -0.1241
     24  CA        26.4960    7.1570   65.2660 C.3    98  HIS98       0.1621
     25  C         26.7570    6.7340   66.6970 C.2    98  HIS98       0.2264
     26  O         25.9320    6.0480   67.2730 O.2    98  HIS98      -0.2867
     27  CB        26.9940    6.1330   64.2710 C.3    98  HIS98       0.0745
     28  CG        26.3630    6.2770   62.9210 C.ar   98  HIS98       0.0817
     29  ND1       27.0670    6.1050   61.7460 N.ar   98  HIS98      -0.2268
     30  CD2       25.0950    6.6010   62.5570 C.ar   98  HIS98       0.1154
     31  CE1       26.2530    6.2960   60.7180 C.ar   98  HIS98       0.1986
     32  NE2       25.0570    6.6170   61.1820 N.ar   98  HIS98      -0.2212
     33  N         26.1810    3.2390   58.8570 N.3   124  SER124     -0.1202
     34  CA        24.7700    2.8950   58.9250 C.3   124  SER124      0.2020
     35  C         24.1270    2.6540   57.5880 C.2   124  SER124      0.2619
     36  O         24.7400    2.8260   56.5430 O.2   124  SER124     -0.2717
     37  CB        23.9700    3.9810   59.6320 C.3   124  SER124      0.2103
     38  OG        23.9830    5.1870   58.8850 O.3   124  SER124     -0.2182
     39  N         22.8690    2.2360   57.6530 N.am  125  SER125     -0.1937
     40  CA        21.9650    2.1710   56.5280 C.3   125  SER125      0.2055
     41  C         20.6230    1.9460   57.1800 C.2   125  SER125      0.2643
     42  O         20.2400    0.8160   57.4890 O.2   125  SER125     -0.2714
     43  CB        22.3090    1.0480   55.5840 C.3   125  SER125      0.2130
     44  OG        21.2530    0.9080   54.6590 O.3   125  SER125     -0.2179
     45  N         19.9220    3.0450   57.4040 N.am  126  ILE126     -0.1963
     46  CA        18.7180    3.0930   58.2140 C.3   126  ILE126      0.1727
     47  C         17.3950    2.8390   57.4630 C.2   126  ILE126      0.2616
     48  O         16.3730    2.5480   58.0870 O.2   126  ILE126     -0.2715
     49  CB        18.6500    4.4190   58.9520 C.3   126  ILE126      0.0290
     50  CG1       18.4100    5.5690   57.9530 C.3   126  ILE126      0.0022
     51  CG2       19.9320    4.6130   59.7840 C.3   126  ILE126      0.0023
     52  CD1       18.0020    6.9110   58.5840 C.3   126  ILE126      0.0001
     53  N         17.4030    2.9410   56.1370 N.am  127  ALA127     -0.1977
     54  CA        16.2020    2.6570   55.3430 C.3   127  ALA127      0.1597
     55  C         15.8780    1.1770   55.4270 C.2   127  ALA127      0.2287
     56  O         16.6970    0.3530   55.0000 O.2   127  ALA127     -0.2864
     57  CB        16.4070    3.0650   53.9020 C.3   127  ALA127      0.0319
     58  N         14.9860   -1.7970   54.3730 N.3   129  PHE129     -0.1241
     59  CA        14.7300   -2.7280   53.2610 C.3   129  PHE129      0.1605
     60  C         14.6790   -4.1650   53.7080 C.2   129  PHE129      0.2264
     61  O         14.0790   -4.9930   53.0340 O.2   129  PHE129     -0.2867
     62  CB        15.7310   -2.5460   52.1030 C.3   129  PHE129      0.0534
     63  CG        15.7840   -1.1340   51.5570 C.ar  129  PHE129     -0.0203
     64  CD1       14.6460   -0.5550   50.9440 C.ar  129  PHE129     -0.0042
     65  CD2       16.9630   -0.3770   51.6690 C.ar  129  PHE129     -0.0042
     66  CE1       14.6700    0.7670   50.4510 C.ar  129  PHE129     -0.0003
     67  CE2       17.0210    0.9660   51.1730 C.ar  129  PHE129     -0.0003
     68  CZ        15.8660    1.5400   50.5610 C.ar  129  PHE129     -0.0000
     69  N         21.7060   -0.1500   51.0970 N.3   146  GLY146     -0.1210
     70  CA        22.4420    0.8710   50.3880 C.3   146  GLY146      0.1956
     71  C         23.0540    2.0020   51.2250 C.2   146  GLY146      0.2612
     72  O         22.7190    2.2070   52.4060 O.2   146  GLY146     -0.2717
     73  N         23.9870    2.7160   50.5880 N.am  147  TRP147     -0.1962
     74  CA        24.3570    4.0300   50.9990 C.3   147  TRP147      0.1771
     75  C         24.8960    4.0070   52.3930 C.2   147  TRP147      0.2620
     76  O         24.2560    4.5210   53.3020 O.2   147  TRP147     -0.2715
     77  CB        23.1140    4.8980   50.9980 C.3   147  TRP147      0.0590
     78  CG        22.4160    5.0240   49.6920 C.ar  147  TRP147      0.0006
     79  CD1       21.3670    4.2820   49.2540 C.ar  147  TRP147      0.0946
     80  CD2       22.6870    5.9850   48.6750 C.ar  147  TRP147      0.0152
     81  NE1       20.9710    4.7110   48.0130 N.ar  147  TRP147     -0.2442
     82  CE2       21.7630    5.7580   47.6330 C.ar  147  TRP147      0.0810
     83  CE3       23.6240    7.0240   48.5450 C.ar  147  TRP147      0.0012
     84  CZ2       21.7510    6.5140   46.4560 C.ar  147  TRP147      0.0191
     85  CZ3       23.6070    7.8080   47.3790 C.ar  147  TRP147      0.0001
     86  CH2       22.6710    7.5410   46.3460 C.ar  147  TRP147      0.0015
     87  N         26.0630    3.4220   52.5920 N.am  148  SER148     -0.1936
     88  CA        26.6450    3.4310   53.9280 C.3   148  SER148      0.2055
     89  C         27.8980    4.2690   53.9330 C.2   148  SER148      0.2643
     90  O         28.9790    3.7510   53.7320 O.2   148  SER148     -0.2714
     91  CB        26.9330    1.9980   54.4020 C.3   148  SER148      0.2130
     92  OG        26.9390    1.9110   55.8250 O.3   148  SER148     -0.2179
     93  N         27.7630    5.5680   54.1450 N.am  149  SER149     -0.1949
     94  CA        28.9460    6.4460   54.1980 C.3   149  SER149      0.1924
     95  C         29.9500    5.9830   55.2520 C.2   149  SER149      0.2314
     96  O         29.5770    5.7150   56.3930 O.2   149  SER149     -0.2863
     97  CB        28.5670    7.9120   54.4400 C.3   149  SER149      0.2116
     98  OG        27.8610    8.4690   53.3410 O.3   149  SER149     -0.2180
     99  N         29.5070    2.0010   44.5700 N.3   188  TRP188     -0.1241
    100  CA        29.4590    3.4370   44.7650 C.3   188  TRP188      0.1605
    101  C         30.1320    4.1920   43.6190 C.2   188  TRP188      0.2264
    102  O         31.3290    4.4970   43.6610 O.2   188  TRP188     -0.2867
    103  CB        30.0510    3.8030   46.1240 C.3   188  TRP188      0.0550
    104  CG        30.2030    5.2810   46.4230 C.ar  188  TRP188      0.0003
    105  CD1       31.3760    5.9420   46.6300 C.ar  188  TRP188      0.0946
    106  CD2       29.1610    6.2560   46.5890 C.ar  188  TRP188      0.0152
    107  NE1       31.1390    7.2650   46.8920 N.ar  188  TRP188     -0.2442
    108  CE2       29.7900    7.4880   46.8780 C.ar  188  TRP188      0.0810
    109  CE3       27.7590    6.2130   46.5060 C.ar  188  TRP188      0.0012
    110  CZ2       29.0750    8.6670   47.0740 C.ar  188  TRP188      0.0191
    111  CZ3       27.0420    7.3890   46.7190 C.ar  188  TRP188      0.0001
    112  CH2       27.7060    8.5980   47.0020 C.ar  188  TRP188      0.0015
    113  N         30.0650   14.1140   46.0690 N.3   193  ILE193     -0.1245
    114  CA        30.4630   13.5760   47.3770 C.3   193  ILE193      0.1561
    115  C         30.9930   12.1680   47.1470 C.2   193  ILE193      0.2260
    116  O         30.6690   11.2410   47.8790 O.2   193  ILE193     -0.2867
    117  CB        29.2700   13.5780   48.3690 C.3   193  ILE193      0.0252
    118  CG1       28.8050   15.0090   48.6100 C.3   193  ILE193      0.0019
    119  CG2       29.6430   12.9790   49.6880 C.3   193  ILE193      0.0019
    120  CD1       27.6960   15.0950   49.6440 C.3   193  ILE193      0.0001
    121  N         32.9350    9.9740   49.9490 N.3   196  SER196     -0.1217
    122  CA        32.2850    9.5450   51.1800 C.3   196  SER196      0.1889
    123  C         32.2510    8.0360   51.3290 C.2   196  SER196      0.2288
    124  O         31.8990    7.5370   52.3870 O.2   196  SER196     -0.2866
    125  CB        30.8660   10.0740   51.2270 C.3   196  SER196      0.2089
    126  OG        30.1930    9.7890   50.0120 O.3   196  SER196     -0.2183
    127  N         30.1600    5.7360   50.1730 N.3   198  SER198     -0.1217
    128  CA        28.8300    5.2720   50.5400 C.3   198  SER198      0.1889
    129  C         28.4240    3.9560   49.8430 C.2   198  SER198      0.2288
    130  O         27.3750    3.8590   49.1820 O.2   198  SER198     -0.2866
    131  CB        27.8370    6.4020   50.2850 C.3   198  SER198      0.2089
    132  OG        28.3000    7.5680   50.9450 O.3   198  SER198     -0.2183
    133  N         21.9330   12.5360   64.8170 N.3   244  PHE244     -0.1241
    134  CA        22.3620   11.7760   63.6790 C.3   244  PHE244      0.1605
    135  C         22.2660   12.5710   62.3550 C.2   244  PHE244      0.2264
    136  O         23.1940   12.5220   61.5450 O.2   244  PHE244     -0.2867
    137  CB        21.5840   10.4720   63.6520 C.3   244  PHE244      0.0534
    138  CG        21.2470    9.9850   62.2760 C.ar  244  PHE244     -0.0203
    139  CD1       22.2190    9.4210   61.4540 C.ar  244  PHE244     -0.0042
    140  CD2       19.9460   10.0570   61.8230 C.ar  244  PHE244     -0.0042
    141  CE1       21.9020    8.9420   60.1710 C.ar  244  PHE244     -0.0003
    142  CE2       19.6030    9.5970   60.5460 C.ar  244  PHE244     -0.0003
    143  CZ        20.5910    9.0400   59.7060 C.ar  244  PHE244     -0.0000
    144  N         24.2670   16.8480   57.7850 N.3   248  PHE248     -0.1241
    145  CA        23.9950   17.1220   56.3860 C.3   248  PHE248      0.1605
    146  C         24.0460   18.5980   56.1240 C.2   248  PHE248      0.2264
    147  O         24.8850   19.0340   55.3370 O.2   248  PHE248     -0.2867
    148  CB        22.6530   16.5480   55.9710 C.3   248  PHE248      0.0534
    149  CG        22.4720   15.0840   56.3300 C.ar  248  PHE248     -0.0203
    150  CD1       23.4240   14.1230   55.9520 C.ar  248  PHE248     -0.0042
    151  CD2       21.3390   14.6540   57.0360 C.ar  248  PHE248     -0.0042
    152  CE1       23.2380   12.7360   56.2670 C.ar  248  PHE248     -0.0003
    153  CE2       21.1610   13.2750   57.3560 C.ar  248  PHE248     -0.0003
    154  CZ        22.1080   12.3260   56.9630 C.ar  248  PHE248     -0.0000
    155  N         24.4600   17.6960   46.1040 N.3   370  MET370     -0.1245
    156  CA        24.2350   16.3480   46.6200 C.3   370  MET370      0.1570
    157  C         23.6400   16.3870   48.0270 C.2   370  MET370      0.2261
    158  O         22.8280   15.5190   48.3970 O.2   370  MET370     -0.2867
    159  CB        25.5000   15.5170   46.5880 C.3   370  MET370      0.0387
    160  CG        25.4000   14.1450   47.2200 C.3   370  MET370      0.0595
    161  SD        24.3110   12.8970   46.4480 S.3   370  MET370     -0.1393
    162  CE        25.4690   11.7960   45.6510 C.3   370  MET370      0.0692
    163  N         19.9760   16.2960   48.2460 N.3   373  ALA373     -0.1231
    164  CA        19.3120   15.1230   47.6250 C.3   373  ALA373      0.1694
    165  C         19.0700   14.0140   48.6500 C.2   373  ALA373      0.2592
    166  O         18.4790   13.0030   48.3690 O.2   373  ALA373     -0.2718
    167  CB        20.1220   14.6200   46.4930 C.3   373  ALA373      0.0304
    168  N         19.5480   14.1950   49.8590 N.am  374  HIS374     -0.1962
    169  CA        19.3210   13.2280   50.8930 C.3   374  HIS374      0.1787
    170  C         17.8570   13.2330   51.2900 C.2   374  HIS374      0.2620
    171  O         17.1660   14.2000   51.0790 O.2   374  HIS374     -0.2715
    172  CB        20.1950   13.5750   52.0800 C.3   374  HIS374      0.0785
    173  CG        20.2720   12.4970   53.0970 C.ar  374  HIS374      0.0821
    174  ND1       19.2510   12.2450   53.9840 N.ar  374  HIS374     -0.2267
    175  CD2       21.2430   11.5920   53.3630 C.ar  374  HIS374      0.1154
    176  CE1       19.5910   11.2340   54.7600 C.ar  374  HIS374      0.1986
    177  NE2       20.7970   10.8210   54.4090 N.ar  374  HIS374     -0.2212
    178  N         17.3900   12.1350   51.8570 N.am  375  ALA375     -0.1977
    179  CA        15.9840   11.9840   52.2010 C.3   375  ALA375      0.1597
    180  C         15.5660   12.8690   53.3680 C.2   375  ALA375      0.2287
    181  O         14.4160   13.2620   53.5020 O.2   375  ALA375     -0.2864
    182  CB        15.7010   10.5540   52.5190 C.3   375  ALA375      0.0319
@<TRIPOS>BOND
     1   101   102    2
     2   101   100    1
     3    99   100    1
     4   100   103    1
     5   162   161    1
     6   113   114    1
     7   155   156    1
     8   103   104    1
     9    86    84   ar
    10    86    85   ar
    11   104   106   ar
    12   104   105   ar
    13   161   160    1
    14    84    82   ar
    15   167   164    1
    16   109   106   ar
    17   109   111   ar
    18   159   156    1
    19   159   160    1
    20   106   108   ar
    21   156   157    1
    22   105   107   ar
    23   111   112   ar
    24   108   107   ar
    25   108   110   ar
    26   112   110   ar
    27   115   114    1
    28   115   116    2
    29   114   117    1
    30    85    83   ar
    31   164   163    1
    32   164   165    1
    33    82    81   ar
    34    82    80   ar
    35    81    79   ar
    36   157   158    2
    37   166   165    2
    38   117   118    1
    39   117   119    1
    40    83    80   ar
    41   118   120    1
    42   165   168   am
    43    80    78   ar
    44   130   129    2
    45    79    78   ar
    46    78    77    1
    47   129   128    1
    48   168   169    1
    49   121   122    1
    50   126   125    1
    51   127   128    1
    52   131   128    1
    53   131   132    1
    54    70    69    1
    55    70    71    1
    56    66    68   ar
    57    66    64   ar
    58    68    67   ar
    59    73    74    1
    60    73    71   am
    61   169   170    1
    62   169   172    1
    63    64    63   ar
    64    77    74    1
    65    74    75    1
    66   171   170    2
    67    67    65   ar
    68   122   125    1
    69   122   123    1
    70    71    72    2
    71   170   178   am
    72   123   124    2
    73    63    65   ar
    74    63    62    1
    75   178   179    1
    76   172   173    1
    77    62    59    1
    78   179   182    1
    79   179   180    1
    80    75    87   am
    81    75    76    2
    82    87    88    1
    83    14    13   ar
    84    14    12   ar
    85    13    11   ar
    86    12    10   ar
    87    61    60    2
    88   173   175   ar
    89   173   174   ar
    90    11     8   ar
    91    59    60    1
    92    59    58    1
    93    98    97    1
    94   175   177   ar
    95   180   181    2
    96    10     8   ar
    97    10     9   ar
    98     8     6   ar
    99    90    89    2
   100     9     7   ar
   101    57    54    1
   102     6     7   ar
   103     6     5    1
   104    88    89    1
   105    88    91    1
   106    89    93   am
   107   174   176   ar
   108     5     2    1
   109    93    94    1
   110    94    97    1
   111    94    95    1
   112    91    92    1
   113   177   176   ar
   114    44    43    1
   115    56    55    2
   116    95    96    2
   117   147   146    2
   118    54    55    1
   119    54    53    1
   120     1     2    1
   121     2     3    1
   122    43    40    1
   123   150   152   ar
   124   150   149   ar
   125   148   149    1
   126   148   145    1
   127     3     4    2
   128   146   145    1
   129    53    47   am
   130   152   154   ar
   131   149   151   ar
   132   145   144    1
   133    40    41    1
   134    40    39    1
   135    36    35    2
   136   154   153   ar
   137    21    20    1
   138   151   153   ar
   139    41    45   am
   140    41    42    2
   141    45    46    1
   142    47    48    2
   143    47    46    1
   144    35    39   am
   145    35    34    1
   146    50    52    1
   147    50    49    1
   148    46    49    1
   149    20    19    1
   150    20    22    1
   151    33    34    1
   152    38    37    1
   153    34    37    1
   154    49    51    1
   155    19    16    1
   156   143   141   ar
   157   143   142   ar
   158    15    16    1
   159   141   139   ar
   160    16    17    1
   161   142   140   ar
   162    31    32   ar
   163    31    29   ar
   164    32    30   ar
   165    17    18    2
   166   139   138   ar
   167   136   135    2
   168    29    28   ar
   169   140   138   ar
   170   138   137    1
   171   135   134    1
   172    30    28   ar
   173    28    27    1
   174   137   134    1
   175   134   133    1
   176    27    24    1
   177    23    24    1
   178    24    25    1
   179    25    26    2
