@<TRIPOS>MOLECULE
tmp/2jbtB01.pdb
 104 101 0 0 0
SMALL
GASTEIGER

@<TRIPOS>ATOM
      1  N         17.3140    9.5320   83.0620 N.3    93  LEU93      -0.1245
      2  CA        18.1920    8.3950   82.8310 C.3    93  LEU93       0.1561
      3  C         17.5810    7.3710   81.8740 C.2    93  LEU93       0.2260
      4  O         18.2400    6.8930   80.9480 O.2    93  LEU93      -0.2867
      5  CB        18.5870    7.7580   84.1610 C.3    93  LEU93       0.0270
      6  CG        19.6770    8.5370   84.8910 C.3    93  LEU93       0.0019
      7  CD1       19.7890    8.1080   86.3310 C.3    93  LEU93       0.0001
      8  CD2       21.0140    8.4020   84.1600 C.3    93  LEU93       0.0001
      9  N         19.5200    6.8300   78.1910 N.3    97  HIS97      -0.1241
     10  CA        20.0230    5.4920   77.9020 C.3    97  HIS97       0.1621
     11  C         19.6600    5.0890   76.4740 C.2    97  HIS97       0.2264
     12  O         20.4580    4.4250   75.7990 O.2    97  HIS97      -0.2867
     13  CB        19.5040    4.4810   78.9090 C.3    97  HIS97       0.0745
     14  CG        20.0260    4.6860   80.2950 C.ar   97  HIS97       0.0817
     15  ND1       19.2980    4.3620   81.4170 N.ar   97  HIS97      -0.2268
     16  CD2       21.1950    5.2000   80.7440 C.ar   97  HIS97       0.1154
     17  CE1       20.0020    4.6430   82.4980 C.ar   97  HIS97       0.1986
     18  NE2       21.1560    5.1570   82.1180 N.ar   97  HIS97      -0.2212
     19  N         20.0950    1.5250   84.4180 N.3   123  SER123     -0.1217
     20  CA        21.5180    1.1960   84.3430 C.3   123  SER123      0.1889
     21  C         22.1880    1.0080   85.6880 C.2   123  SER123      0.2288
     22  O         21.6320    1.3300   86.7300 O.2   123  SER123     -0.2866
     23  CB        22.2840    2.2780   83.5680 C.3   123  SER123      0.2089
     24  OG        22.4600    3.4490   84.3590 O.3   123  SER123     -0.2183
     25  N         26.4410    1.3530   86.0480 N.3   125  ILE125     -0.1245
     26  CA        27.5630    1.4290   85.1150 C.3   125  ILE125      0.1561
     27  C         28.9350    1.1400   85.7210 C.2   125  ILE125      0.2260
     28  O         29.8630    0.7890   85.0020 O.2   125  ILE125     -0.2867
     29  CB        27.5760    2.7570   84.3220 C.3   125  ILE125      0.0252
     30  CG1       27.9730    3.9380   85.2140 C.3   125  ILE125      0.0019
     31  CG2       26.2200    3.0030   83.6680 C.3   125  ILE125      0.0019
     32  CD1       28.7860    4.9930   84.4890 C.3   125  ILE125      0.0001
     33  N         28.8100    9.1810   73.5550 N.3   239  TYR239     -0.1227
     34  CA        27.6170    8.7640   74.2660 C.3   239  TYR239      0.1736
     35  C         27.5260    9.4530   75.6160 C.2   239  TYR239      0.2595
     36  O         26.4340    9.7710   76.0900 O.2   239  TYR239     -0.2718
     37  CB        27.6040    7.2380   74.4620 C.3   239  TYR239      0.0548
     38  CG        28.4360    6.7810   75.6400 C.ar  239  TYR239     -0.0200
     39  CD1       27.8590    6.5720   76.8900 C.ar  239  TYR239     -0.0009
     40  CD2       29.8100    6.5860   75.5080 C.ar  239  TYR239     -0.0009
     41  CE1       28.6280    6.1760   77.9680 C.ar  239  TYR239      0.0417
     42  CE2       30.5850    6.1850   76.5840 C.ar  239  TYR239      0.0417
     43  CZ        29.9960    5.9880   77.7990 C.ar  239  TYR239      0.1957
     44  OH        30.7970    5.6030   78.8430 O.3   239  TYR239     -0.2866
     45  N         28.6730    9.6840   76.2410 N.am  240  ARG240     -0.1980
     46  CA        28.6810    9.9960   77.6700 C.3   240  ARG240      0.1597
     47  C         28.0920   11.3630   78.0200 C.2   240  ARG240      0.2287
     48  O         27.3320   11.4640   78.9940 O.2   240  ARG240     -0.2864
     49  CB        30.0780    9.8050   78.2640 C.3   240  ARG240      0.0334
     50  CG        30.0920    9.6690   79.7620 C.3   240  ARG240      0.0492
     51  CD        31.4960    9.3910   80.2410 C.3   240  ARG240      0.2205
     52  NE        31.5620    9.3690   81.6970 N.pl3 240  ARG240     -0.0865
     53  CZ        32.6480    9.6850   82.4020 C.cat 240  ARG240      0.5346
     54  NH1       33.7600   10.0650   81.7760 N.pl3 240  ARG240      0.1354
     55  NH2       32.6240    9.6280   83.7350 N.pl3 240  ARG240      0.1354
     56  N         24.4240   10.7640   77.9710 N.3   243  PHE243     -0.1227
     57  CA        24.2740    9.8450   79.0960 C.3   243  PHE243      0.1736
     58  C         24.0890   10.6310   80.3960 C.2   243  PHE243      0.2595
     59  O         23.0800   10.4730   81.0900 O.2   243  PHE243     -0.2718
     60  CB        25.5430    8.9830   79.1990 C.3   243  PHE243      0.0547
     61  CG        25.2980    7.5370   79.5150 C.ar  243  PHE243     -0.0202
     62  CD1       24.3990    6.7740   78.7560 C.ar  243  PHE243     -0.0042
     63  CD2       26.0220    6.9070   80.5290 C.ar  243  PHE243     -0.0042
     64  CE1       24.1890    5.4080   79.0460 C.ar  243  PHE243     -0.0003
     65  CE2       25.8170    5.5290   80.8330 C.ar  243  PHE243     -0.0003
     66  CZ        24.8960    4.7900   80.0900 C.ar  243  PHE243     -0.0000
     67  N         25.0610   11.4950   80.6930 N.am  244  ALA244     -0.1980
     68  CA        25.1630   12.1590   81.9890 C.3   244  ALA244      0.1597
     69  C         24.7000   13.6260   81.9830 C.2   244  ALA244      0.2287
     70  O         25.0730   14.4040   82.8730 O.2   244  ALA244     -0.2864
     71  CB        26.5750   12.0720   82.4660 C.3   244  ALA244      0.0319
     72  N         21.9290   15.1020   85.2540 N.3   247  PHE247     -0.1241
     73  CA        22.2060   15.3910   86.6410 C.3   247  PHE247      0.1605
     74  C         22.1290   16.8820   86.8830 C.2   247  PHE247      0.2264
     75  O         21.3360   17.3390   87.7240 O.2   247  PHE247     -0.2867
     76  CB        23.5800   14.8620   87.0460 C.3   247  PHE247      0.0534
     77  CG        23.8080   13.4170   86.6950 C.ar  247  PHE247     -0.0203
     78  CD1       22.8790   12.4380   87.0520 C.ar  247  PHE247     -0.0042
     79  CD2       24.9590   13.0330   86.0240 C.ar  247  PHE247     -0.0042
     80  CE1       23.0860   11.0940   86.7380 C.ar  247  PHE247     -0.0003
     81  CE2       25.1850   11.6960   85.7130 C.ar  247  PHE247     -0.0003
     82  CZ        24.2430   10.7230   86.0660 C.ar  247  PHE247     -0.0000
     83  N         26.6170   12.5300   93.1330 N.3   373  HIS373     -0.1241
     84  CA        26.8950   11.5960   92.0560 C.3   373  HIS373      0.1621
     85  C         28.3650   11.6510   91.6400 C.2   373  HIS373      0.2264
     86  O         28.9580   12.7270   91.5420 O.2   373  HIS373     -0.2867
     87  CB        26.0270   11.9160   90.8590 C.3   373  HIS373      0.0745
     88  CG        25.9740   10.8180   89.8520 C.ar  373  HIS373      0.0817
     89  ND1       26.9860   10.5940   88.9460 N.ar  373  HIS373     -0.2268
     90  CD2       25.0380    9.8680   89.6160 C.ar  373  HIS373      0.1154
     91  CE1       26.6730    9.5570   88.1900 C.ar  373  HIS373      0.1986
     92  NE2       25.4940    9.0980   88.5750 N.ar  373  HIS373     -0.2212
     93  N         29.6490   11.5500   88.9090 N.3   375  TYR375     -0.1241
     94  CA        29.8640   12.3350   87.6910 C.3   375  TYR375      0.1605
     95  C         29.8900   13.8390   87.9420 C.2   375  TYR375      0.2264
     96  O         30.4130   14.6020   87.1060 O.2   375  TYR375     -0.2867
     97  CB        28.8140   12.0050   86.6330 C.3   375  TYR375      0.0534
     98  CG        29.1560   12.5210   85.2570 C.ar  375  TYR375     -0.0201
     99  CD1       30.0420   11.8280   84.4330 C.ar  375  TYR375     -0.0009
    100  CD2       28.6020   13.7040   84.7780 C.ar  375  TYR375     -0.0009
    101  CE1       30.3650   12.2870   83.1690 C.ar  375  TYR375      0.0417
    102  CE2       28.9180   14.1750   83.5060 C.ar  375  TYR375      0.0417
    103  CZ        29.8090   13.4580   82.7100 C.ar  375  TYR375      0.1957
    104  OH        30.1350   13.9020   81.4420 O.3   375  TYR375     -0.2866
@<TRIPOS>BOND
     1    33    34    1
     2    34    37    1
     3    34    35    1
     4    37    38    1
     5    40    38   ar
     6    40    42   ar
     7    35    36    2
     8    35    45   am
     9    38    39   ar
    10    12    11    2
    11    45    46    1
    12    11    10    1
    13    42    43   ar
    14    39    41   ar
    15    46    47    1
    16    46    49    1
    17    43    41   ar
    18    43    44    1
    19    10     9    1
    20    10    13    1
    21    56    57    1
    22    47    48    2
    23    49    50    1
    24    62    64   ar
    25    62    61   ar
    26    13    14    1
    27    64    66   ar
    28    57    60    1
    29    57    58    1
    30    60    61    1
    31    61    63   ar
    32    50    51    1
    33    66    65   ar
    34    51    52    1
    35    14    16   ar
    36    14    15   ar
    37    58    67   am
    38    58    59    2
    39    63    65   ar
    40    67    68    1
    41    16    18   ar
    42     4     3    2
    43    15    17   ar
    44   104   103    1
    45    52    53    2
    46    54    53    1
    47     3     2    1
    48    69    68    1
    49    69    70    2
    50    68    71    1
    51    18    17   ar
    52    53    55    1
    53   103   101   ar
    54   103   102   ar
    55     2     1    1
    56     2     5    1
    57   101    99   ar
    58   102   100   ar
    59    23    20    1
    60    23    24    1
    61    31    29    1
    62     8     6    1
    63     5     6    1
    64    29    26    1
    65    29    30    1
    66    20    19    1
    67    20    21    1
    68    99    98   ar
    69    32    30    1
    70   100    98   ar
    71     6     7    1
    72    28    27    2
    73    26    27    1
    74    26    25    1
    75    72    73    1
    76    98    97    1
    77    21    22    2
    78    81    79   ar
    79    81    82   ar
    80    79    77   ar
    81    82    80   ar
    82    97    94    1
    83    73    74    1
    84    73    76    1
    85    77    76    1
    86    77    78   ar
    87    80    78   ar
    88    74    75    2
    89    96    95    2
    90    94    95    1
    91    94    93    1
    92    91    92   ar
    93    91    89   ar
    94    92    90   ar
    95    89    88   ar
    96    90    88   ar
    97    88    87    1
    98    87    84    1
    99    86    85    2
   100    85    84    1
   101    84    83    1
