@<TRIPOS>MOLECULE
tmp/2jbuA00.pdb
 190 187 0 0 0
SMALL
GASTEIGER

@<TRIPOS>ATOM
      1  N       -108.0190   29.9620    2.6580 N.3    65  HIS65      -0.1241
      2  CA      -107.2110   30.7330    1.7220 C.3    65  HIS65       0.1621
      3  C       -106.4970   29.7950    0.7600 C.2    65  HIS65       0.2264
      4  O       -106.3930   30.0680   -0.4420 O.2    65  HIS65      -0.2867
      5  CB      -106.1620   31.5730    2.4550 C.3    65  HIS65       0.0745
      6  CG      -105.3420   32.4370    1.5430 C.ar   65  HIS65       0.0817
      7  ND1     -104.0580   32.8380    1.8480 N.ar   65  HIS65      -0.2268
      8  CD2     -105.6190   32.9610    0.3230 C.ar   65  HIS65       0.1154
      9  CE1     -103.5770   33.5640    0.8520 C.ar   65  HIS65       0.1986
     10  NE2     -104.5040   33.6540   -0.0860 N.ar   65  HIS65      -0.2212
     11  N       -108.6790   28.3630   -1.8050 N.3    68  GLN68      -0.1231
     12  CA      -108.8910   29.4150   -2.7940 C.3    68  GLN68       0.1698
     13  C       -107.8500   29.3070   -3.8840 C.2    68  GLN68       0.2592
     14  O       -108.1770   29.3530   -5.0680 O.2    68  GLN68      -0.2718
     15  CB      -108.7930   30.7950   -2.1450 C.3    68  GLN68       0.0381
     16  CG      -109.1590   31.9730   -3.0760 C.3    68  GLN68       0.0905
     17  CD      -108.0990   33.0490   -3.0910 C.2    68  GLN68       0.2608
     18  OE1     -107.8850   33.7530   -2.1000 O.2    68  GLN68      -0.2717
     19  NE2     -107.4080   33.1690   -4.2180 N.am   68  GLN68      -0.0878
     20  N       -106.5930   29.1790   -3.4780 N.am   69  HIS69      -0.1976
     21  CA      -105.5070   29.0390   -4.4320 C.3    69  HIS69       0.1656
     22  C       -105.6930   27.7950   -5.2860 C.2    69  HIS69       0.2291
     23  O       -105.6260   27.8470   -6.5170 O.2    69  HIS69      -0.2864
     24  CB      -104.1760   28.9230   -3.7050 C.3    69  HIS69       0.0771
     25  CG      -103.6120   30.2360   -3.2640 C.ar   69  HIS69       0.0820
     26  ND1     -102.5800   30.8640   -3.9310 N.ar   69  HIS69      -0.2267
     27  CD2     -103.9270   31.0400   -2.2210 C.ar   69  HIS69       0.1154
     28  CE1     -102.2840   31.9920   -3.3140 C.ar   69  HIS69       0.1986
     29  NE2     -103.0880   32.1240   -2.2730 N.ar   69  HIS69      -0.2212
     30  N       -107.9080   27.0820   -8.7100 N.3    72  PHE72      -0.1241
     31  CA      -107.4030   27.5240  -10.0070 C.3    72  PHE72       0.1605
     32  C       -106.4850   26.4870  -10.6300 C.2    72  PHE72       0.2264
     33  O       -106.0680   26.6390  -11.7630 O.2    72  PHE72      -0.2867
     34  CB      -106.5620   28.7940   -9.8860 C.3    72  PHE72       0.0534
     35  CG      -107.3230   30.0360   -9.4980 C.ar   72  PHE72      -0.0203
     36  CD1     -107.7680   30.2220   -8.1930 C.ar   72  PHE72      -0.0042
     37  CD2     -107.4840   31.0650  -10.4110 C.ar   72  PHE72      -0.0042
     38  CE1     -108.3470   31.4100   -7.8040 C.ar   72  PHE72      -0.0003
     39  CE2     -108.0620   32.2540  -10.0330 C.ar   72  PHE72      -0.0003
     40  CZ      -108.4940   32.4280   -8.7170 C.ar   72  PHE72      -0.0000
     41  N       -107.9260   37.3450  -14.1770 N.3    95  SER95      -0.1202
     42  CA      -108.6590   36.7490  -13.0770 C.3    95  SER95       0.2020
     43  C       -107.9550   36.8640  -11.7380 C.2    95  SER95       0.2619
     44  O       -106.7680   37.1420  -11.6520 O.2    95  SER95      -0.2717
     45  CB      -108.9100   35.2700  -13.3910 C.3    95  SER95       0.2103
     46  OG      -109.5140   34.5890  -12.3050 O.3    95  SER95      -0.2182
     47  N       -108.7100   36.6650  -10.6780 N.am   96  ASN96      -0.1960
     48  CA      -108.1280   36.6810   -9.3640 C.3    96  ASN96       0.1819
     49  C       -109.1810   36.3460   -8.3370 C.2    96  ASN96       0.2621
     50  O       -110.3630   36.2000   -8.6600 O.2    96  ASN96      -0.2715
     51  CB      -107.4990   38.0210   -9.0540 C.3    96  ASN96       0.1195
     52  CG      -106.3290   37.8890   -8.1140 C.2    96  ASN96       0.2630
     53  OD1     -106.3700   37.1180   -7.1540 O.2    96  ASN96      -0.2716
     54  ND2     -105.2740   38.6360   -8.3790 N.am   96  ASN96      -0.0877
     55  N       -108.7390   36.2170   -7.0980 N.am   97  ALA97      -0.1963
     56  CA      -109.6200   35.8740   -6.0170 C.3    97  ALA97       0.1728
     57  C       -109.0190   36.3620   -4.7160 C.2    97  ALA97       0.2616
     58  O       -107.8430   36.6890   -4.6630 O.2    97  ALA97      -0.2715
     59  CB      -109.7900   34.3640   -5.9790 C.3    97  ALA97       0.0334
     60  N       -109.8330   36.4360   -3.6730 N.am   98  PHE98      -0.1960
     61  CA      -109.3340   36.8180   -2.3680 C.3    98  PHE98       0.1771
     62  C       -110.1830   36.1110   -1.3480 C.2    98  PHE98       0.2620
     63  O       -111.2580   35.6030   -1.6670 O.2    98  PHE98      -0.2715
     64  CB      -109.3780   38.3420   -2.1320 C.3    98  PHE98       0.0574
     65  CG      -110.7540   38.9270   -2.0940 C.ar   98  PHE98      -0.0200
     66  CD1     -111.3310   39.4660   -3.2440 C.ar   98  PHE98      -0.0042
     67  CD2     -111.4900   38.9360   -0.9070 C.ar   98  PHE98      -0.0042
     68  CE1     -112.6380   40.0140   -3.2170 C.ar   98  PHE98      -0.0003
     69  CE2     -112.8000   39.4770   -0.8640 C.ar   98  PHE98      -0.0003
     70  CZ      -113.3740   40.0180   -2.0240 C.ar   98  PHE98      -0.0000
     71  N       -109.6940   36.0940   -0.1180 N.am   99  THR99      -0.1937
     72  CA      -110.3800   35.4390    0.9780 C.3    99  THR99       0.2028
     73  C       -110.3720   36.4000    2.1480 C.2    99  THR99       0.2642
     74  O       -109.3390   36.9650    2.4530 O.2    99  THR99      -0.2714
     75  CB      -109.6230   34.1470    1.3810 C.3    99  THR99       0.1808
     76  OG1     -109.4190   33.3410    0.2180 O.3    99  THR99      -0.2208
     77  CG2     -110.4040   33.3450    2.3690 C.3    99  THR99       0.0379
     78  N       -111.5240   36.6030    2.7820 N.am  100  SER100     -0.1949
     79  CA      -111.6200   37.4680    3.9600 C.3   100  SER100      0.1924
     80  C       -112.1100   36.5760    5.0900 C.2   100  SER100      0.2314
     81  O       -112.1920   35.3670    4.9300 O.2   100  SER100     -0.2863
     82  CB      -112.6210   38.5910    3.7360 C.3   100  SER100      0.2116
     83  OG      -113.9280   38.0850    3.5300 O.3   100  SER100     -0.2180
     84  N        -96.5020   34.6280   -0.0090 N.3   146  GLU146     -0.1245
     85  CA       -97.4350   35.7190    0.1980 C.3   146  GLU146      0.1567
     86  C        -97.3350   36.1680    1.6520 C.2   146  GLU146      0.2260
     87  O        -97.1440   37.3500    1.9210 O.2   146  GLU146     -0.2867
     88  CB       -98.8570   35.2600   -0.1170 C.3   146  GLU146      0.0388
     89  CG       -99.9610   36.2540    0.2260 C.3   146  GLU146      0.1160
     90  CD      -101.3260   35.8150   -0.3110 C.2   146  GLU146      0.3649
     91  OE1     -102.3360   36.4550    0.0380 O.co2 146  GLU146     -0.2457
     92  OE2     -101.4030   34.8390   -1.0910 O.co2 146  GLU146     -0.2457
     93  N        -95.7190   39.9300    3.9130 N.3   150  ASN150     -0.1240
     94  CA       -96.4700   40.6590    4.9300 C.3   150  ASN150      0.1653
     95  C        -95.8360   40.7430    6.2980 C.2   150  ASN150      0.2266
     96  O        -96.1640   41.6170    7.0810 O.2   150  ASN150     -0.2867
     97  CB       -97.8440   40.0420    5.1130 C.3   150  ASN150      0.1155
     98  CG       -98.6260   40.0170    3.8470 C.2   150  ASN150      0.2627
     99  OD1      -98.3010   40.7270    2.8970 O.2   150  ASN150     -0.2716
    100  ND2      -99.6800   39.2090    3.8200 N.am  150  ASN150     -0.0877
    101  N        -98.7340   47.3460    8.8340 N.3   155  ALA155     -0.1231
    102  CA      -100.1900   47.1990    8.7310 C.3   155  ALA155      0.1694
    103  C       -100.6100   45.7810    9.0660 C.2   155  ALA155      0.2592
    104  O       -101.4270   45.5600    9.9600 O.2   155  ALA155     -0.2718
    105  CB      -100.6540   47.5450    7.3450 C.3   155  ALA155      0.0304
    106  N       -100.0540   44.8160    8.3450 N.am  156  TRP156     -0.1976
    107  CA      -100.3880   43.4230    8.6060 C.3   156  TRP156      0.1640
    108  C       -100.1200   43.0020   10.0490 C.2   156  TRP156      0.2290
    109  O       -100.9120   42.2670   10.6350 O.2   156  TRP156     -0.2864
    110  CB       -99.6200   42.5100    7.6580 C.3   156  TRP156      0.0576
    111  CG      -100.2830   42.3970    6.3600 C.ar  156  TRP156      0.0006
    112  CD1      -99.9290   43.0040    5.1950 C.ar  156  TRP156      0.0946
    113  CD2     -101.4650   41.6540    6.0870 C.ar  156  TRP156      0.0152
    114  NE1     -100.8280   42.6820    4.2010 N.ar  156  TRP156     -0.2442
    115  CE2     -101.7770   41.8510    4.7240 C.ar  156  TRP156      0.0810
    116  CE3     -102.2940   40.8400    6.8640 C.ar  156  TRP156      0.0012
    117  CZ2     -102.8830   41.2600    4.1220 C.ar  156  TRP156      0.0191
    118  CZ3     -103.3930   40.2590    6.2680 C.ar  156  TRP156      0.0001
    119  CH2     -103.6780   40.4690    4.9050 C.ar  156  TRP156      0.0015
    120  N       -102.7950   44.4880   12.2490 N.3   159  PHE159     -0.1241
    121  CA      -104.0590   43.8550   11.9290 C.3   159  PHE159      0.1605
    122  C       -104.1940   42.5620   12.7240 C.2   159  PHE159      0.2264
    123  O       -105.2370   42.3110   13.3270 O.2   159  PHE159     -0.2867
    124  CB      -104.1250   43.5740   10.4290 C.3   159  PHE159      0.0534
    125  CG      -105.1700   42.5820   10.0390 C.ar  159  PHE159     -0.0203
    126  CD1     -104.8120   41.3040    9.6300 C.ar  159  PHE159     -0.0042
    127  CD2     -106.5130   42.9320   10.0220 C.ar  159  PHE159     -0.0042
    128  CE1     -105.7780   40.3890    9.1980 C.ar  159  PHE159     -0.0003
    129  CE2     -107.4910   42.0150    9.5900 C.ar  159  PHE159     -0.0003
    130  CZ      -107.1140   40.7430    9.1750 C.ar  159  PHE159     -0.0000
    131  N       -105.5240   34.0360    9.3540 N.3   176  GLY176     -0.1210
    132  CA      -106.1030   33.7570    8.0560 C.3   176  GLY176      0.1956
    133  C       -105.2390   33.4360    6.8630 C.2   176  GLY176      0.2612
    134  O       -105.6800   32.6950    5.9800 O.2   176  GLY176     -0.2717
    135  N       -104.0210   33.9560    6.8020 N.am  177  THR177     -0.1952
    136  CA      -103.2160   33.6900    5.6200 C.3   177  THR177      0.1897
    137  C       -102.6530   32.2890    5.5380 C.2   177  THR177      0.2313
    138  O       -102.7040   31.6570    4.4860 O.2   177  THR177     -0.2863
    139  CB      -102.0270   34.6360    5.5130 C.3   177  THR177      0.1794
    140  OG1     -102.4620   35.9860    5.7270 O.3   177  THR177     -0.2208
    141  CG2     -101.3760   34.4800    4.1320 C.3   177  THR177      0.0378
    142  N        -95.7790   33.3770  -15.6830 N.3   777  PHE777     -0.1241
    143  CA       -96.3960   33.1300  -14.3860 C.3   777  PHE777      0.1605
    144  C        -96.4420   31.6250  -14.1220 C.2   777  PHE777      0.2264
    145  O        -95.9730   31.1270  -13.0860 O.2   777  PHE777     -0.2867
    146  CB       -97.8230   33.6790  -14.3680 C.3   777  PHE777      0.0534
    147  CG       -98.4890   33.5890  -13.0230 C.ar  777  PHE777     -0.0203
    148  CD1      -98.3320   34.5980  -12.0840 C.ar  777  PHE777     -0.0042
    149  CD2      -99.2970   32.5070  -12.7010 C.ar  777  PHE777     -0.0042
    150  CE1      -98.9860   34.5300  -10.8420 C.ar  777  PHE777     -0.0003
    151  CE2      -99.9500   32.4330  -11.4590 C.ar  777  PHE777     -0.0003
    152  CZ       -99.7980   33.4410  -10.5360 C.ar  777  PHE777     -0.0000
    153  N        -93.6610   30.6730  -11.4550 N.3   781  ARG781     -0.1245
    154  CA       -94.3860   30.5550  -10.2010 C.3   781  ARG781      0.1563
    155  C        -95.1390   29.2430  -10.0120 C.2   781  ARG781      0.2260
    156  O        -94.7880   28.4520   -9.1420 O.2   781  ARG781     -0.2867
    157  CB       -95.3590   31.7280  -10.0010 C.3   781  ARG781      0.0307
    158  CG       -96.1980   31.5790   -8.7200 C.3   781  ARG781      0.0489
    159  CD       -97.0510   32.7950   -8.3990 C.3   781  ARG781      0.2205
    160  NE       -98.2640   32.4220   -7.6670 N.pl3 781  ARG781     -0.0865
    161  CZ       -99.0920   33.2800   -7.0660 C.cat 781  ARG781      0.5346
    162  NH1      -98.8510   34.5860   -7.0880 N.pl3 781  ARG781      0.1354
    163  NH2     -100.1800   32.8290   -6.4530 N.pl3 781  ARG781      0.1354
    164  N        -94.0350   34.4600   -4.5390 N.3   788  TYR788     -0.1227
    165  CA       -95.3560   35.0290   -4.7680 C.3   788  TYR788      0.1736
    166  C        -95.3550   36.0870   -5.8710 C.2   788  TYR788      0.2595
    167  O        -96.1660   36.0430   -6.7900 O.2   788  TYR788     -0.2718
    168  CB       -95.8840   35.6380   -3.4700 C.3   788  TYR788      0.0548
    169  CG       -97.2970   36.1650   -3.5640 C.ar  788  TYR788     -0.0200
    170  CD1      -98.3610   35.3100   -3.8450 C.ar  788  TYR788     -0.0009
    171  CD2      -97.5740   37.5170   -3.3420 C.ar  788  TYR788     -0.0009
    172  CE1      -99.6620   35.7850   -3.8970 C.ar  788  TYR788      0.0417
    173  CE2      -98.8770   38.0040   -3.3910 C.ar  788  TYR788      0.0417
    174  CZ       -99.9140   37.1350   -3.6670 C.ar  788  TYR788      0.1957
    175  OH      -101.2070   37.6060   -3.7100 O.3   788  TYR788     -0.2866
    176  N        -94.4410   37.0380   -5.7830 N.am  789  ILE789     -0.1966
    177  CA       -94.3790   38.0800   -6.7840 C.3   789  ILE789      0.1727
    178  C        -93.5120   37.6550   -7.9820 C.2   789  ILE789      0.2616
    179  O        -92.2960   37.4770   -7.8700 O.2   789  ILE789     -0.2715
    180  CB       -93.8540   39.3910   -6.1360 C.3   789  ILE789      0.0290
    181  CG1      -94.8660   39.8740   -5.1020 C.3   789  ILE789      0.0022
    182  CG2      -93.6330   40.4820   -7.1840 C.3   789  ILE789      0.0023
    183  CD1      -94.3890   41.0530   -4.2930 C.3   789  ILE789      0.0001
    184  N        -94.1660   37.4790   -9.1260 N.am  790  VAL790     -0.1977
    185  CA       -93.4970   37.0960  -10.3690 C.3   790  VAL790      0.1596
    186  C        -94.1680   37.9030  -11.4450 C.2   790  VAL790      0.2287
    187  O        -95.3400   37.6890  -11.7220 O.2   790  VAL790     -0.2864
    188  CB       -93.7040   35.6320  -10.7260 C.3   790  VAL790      0.0276
    189  CG1      -93.0250   35.3460  -12.0610 C.3   790  VAL790      0.0022
    190  CG2      -93.1670   34.7460   -9.6110 C.3   790  VAL790      0.0022
@<TRIPOS>BOND
     1   142   143    1
     2   143   146    1
     3   143   144    1
     4   146   147    1
     5    41    42    1
     6   144   145    2
     7    45    42    1
     8    45    46    1
     9    42    43    1
    10   147   149   ar
    11   147   148   ar
    12   149   151   ar
    13   148   150   ar
    14   189   188    1
    15    33    32    2
    16    43    44    2
    17    43    47   am
    18   187   186    2
    19   151   152   ar
    20   153   154    1
    21   186   185    1
    22   150   152   ar
    23   188   185    1
    24   188   190    1
    25    47    48    1
    26    32    31    1
    27    37    39   ar
    28    37    35   ar
    29   185   184    1
    30   154   155    1
    31   154   157    1
    32    39    40   ar
    33   155   156    2
    34    31    34    1
    35    31    30    1
    36   157   158    1
    37    34    35    1
    38    35    36   ar
    39    48    51    1
    40    48    49    1
    41   184   178   am
    42    51    52    1
    43   158   159    1
    44    40    38   ar
    45    50    49    2
    46   159   160    1
    47    54    52   am
    48    49    55   am
    49    36    38   ar
    50    52    53    2
    51   178   179    2
    52   178   177    1
    53   160   161    2
    54   182   180    1
    55    55    56    1
    56   162   161    1
    57   161   163    1
    58   167   166    2
    59   177   180    1
    60   177   176    1
    61    23    22    2
    62   180   181    1
    63    56    59    1
    64    56    57    1
    65   166   176   am
    66   166   165    1
    67    22    21    1
    68   181   183    1
    69    14    13    2
    70   165   164    1
    71   165   168    1
    72    57    58    2
    73    57    60   am
    74    21    24    1
    75    21    20    1
    76    19    17   am
    77    26    28   ar
    78    26    25   ar
    79   172   170   ar
    80   172   174   ar
    81    13    20   am
    82    13    12    1
    83   170   169   ar
    84   175   174    1
    85    24    25    1
    86    60    61    1
    87   174   173   ar
    88   169   168    1
    89   169   171   ar
    90   173   171   ar
    91    28    29   ar
    92    25    27   ar
    93    66    68   ar
    94    66    65   ar
    95    68    70   ar
    96    17    16    1
    97    17    18    2
    98    16    15    1
    99    12    15    1
   100    12    11    1
   101    61    64    1
   102    61    62    1
   103    29    27   ar
   104    64    65    1
   105    65    67   ar
   106    70    69   ar
   107    63    62    2
   108    62    71   am
   109    92    90   ar
   110    67    69   ar
   111     4     3    2
   112    90    91   ar
   113    90    89    1
   114    71    72    1
   115    88    85    1
   116    88    89    1
   117    10     8   ar
   118    10     9   ar
   119    84    85    1
   120    85    86    1
   121    76    75    1
   122     8     6   ar
   123     3     2    1
   124     9     7   ar
   125    72    75    1
   126    72    73    1
   127    75    77    1
   128     6     7   ar
   129     6     5    1
   130    86    87    2
   131     2     5    1
   132     2     1    1
   133    73    74    2
   134    73    78   am
   135    78    79    1
   136    99    98    2
   137    83    82    1
   138    82    79    1
   139   100    98   am
   140    98    97    1
   141    93    94    1
   142    79    80    1
   143   117   115   ar
   144   117   119   ar
   145   141   139    1
   146   114   115   ar
   147   114   112   ar
   148   138   137    2
   149   115   113   ar
   150   119   118   ar
   151    94    97    1
   152    94    95    1
   153    81    80    2
   154   112   111   ar
   155   139   136    1
   156   139   140    1
   157   137   136    1
   158   136   135    1
   159   134   133    2
   160   113   111   ar
   161   113   116   ar
   162   118   116   ar
   163    95    96    2
   164   111   110    1
   165   135   133   am
   166   133   132    1
   167   105   102    1
   168   110   107    1
   169   132   131    1
   170   106   107    1
   171   106   103   am
   172   107   108    1
   173   102   101    1
   174   102   103    1
   175   103   104    2
   176   130   128   ar
   177   130   129   ar
   178   128   126   ar
   179   129   127   ar
   180   126   125   ar
   181   127   125   ar
   182   125   124    1
   183   108   109    2
   184   124   121    1
   185   121   120    1
   186   121   122    1
   187   122   123    2
