@<TRIPOS>MOLECULE
tmp/2jbzA00.pdb
 99 95 0 0 0
SMALL
GASTEIGER

@<TRIPOS>ATOM
      1  N         -4.1320   -7.5510   22.7390 N.3    45  ARG45      -0.1245
      2  CA        -3.4990   -7.1360   21.4880 C.3    45  ARG45       0.1563
      3  C         -2.8540   -5.7570   21.6070 C.2    45  ARG45       0.2260
      4  O         -3.4210   -4.8430   22.2200 O.2    45  ARG45      -0.2867
      5  CB        -4.5420   -7.1370   20.3640 C.3    45  ARG45       0.0307
      6  CG        -3.9690   -6.8880   18.9770 C.3    45  ARG45       0.0489
      7  CD        -4.9910   -7.2270   17.9060 C.3    45  ARG45       0.2205
      8  NE        -5.3970   -8.6220   17.9160 N.pl3  45  ARG45      -0.0865
      9  CZ        -4.7210   -9.6010   17.3200 C.cat  45  ARG45       0.5346
     10  NH1       -3.5890   -9.3390   16.6620 N.pl3  45  ARG45       0.1354
     11  NH2       -5.1820  -10.8320   17.3740 N.pl3  45  ARG45       0.1354
     12  N         -0.6580   -3.6850   16.2440 N.3    49  SER49      -0.1217
     13  CA        -1.5920   -4.6700   15.6980 C.3    49  SER49       0.1889
     14  C         -3.0330   -4.1230   15.6160 C.2    49  SER49       0.2288
     15  O         -3.7490   -4.3550   14.6200 O.2    49  SER49      -0.2866
     16  CB        -1.5250   -5.9640   16.4910 C.3    49  SER49       0.2089
     17  OG        -2.2660   -6.9630   15.8460 O.3    49  SER49      -0.2183
     18  N         -5.5280   -3.1790   12.2560 N.3    53  ARG53      -0.1245
     19  CA        -6.9440   -3.5570   12.1390 C.3    53  ARG53       0.1563
     20  C         -7.8120   -2.3170   11.8900 C.2    53  ARG53       0.2260
     21  O         -8.7680   -2.3750   11.1360 O.2    53  ARG53      -0.2867
     22  CB        -7.4000   -4.3150   13.3980 C.3    53  ARG53       0.0307
     23  CG        -6.9020   -5.7500   13.3740 C.3    53  ARG53       0.0489
     24  CD        -6.6650   -6.3720   14.7670 C.3    53  ARG53       0.2205
     25  NE        -6.4280   -7.8030   14.5990 N.pl3  53  ARG53      -0.0865
     26  CZ        -5.3390   -8.3670   14.0530 C.cat  53  ARG53       0.5346
     27  NH1       -4.2930   -7.6340   13.6520 N.pl3  53  ARG53       0.1354
     28  NH2       -5.3040   -9.6930   13.9100 N.pl3  53  ARG53       0.1354
     29  N         -8.7070  -14.4500   12.5040 N.3    79  VAL79      -0.1245
     30  CA        -7.3720  -14.9550   12.1500 C.3    79  VAL79       0.1561
     31  C         -7.4500  -16.4420   11.9450 C.2    79  VAL79       0.2260
     32  O         -7.9200  -17.1670   12.8360 O.2    79  VAL79      -0.2867
     33  CB        -6.3260  -14.6230   13.2580 C.3    79  VAL79       0.0252
     34  CG1       -4.9620  -15.1590   12.9120 C.3    79  VAL79       0.0019
     35  CG2       -6.2260  -13.1180   13.4700 C.3    79  VAL79       0.0019
     36  N         -3.5390  -20.7430   10.5760 N.3    82  GLY82      -0.1210
     37  CA        -2.2560  -20.4580    9.9270 C.3    82  GLY82       0.1956
     38  C         -1.7110  -19.0550   10.1370 C.2    82  GLY82       0.2612
     39  O         -0.5210  -18.8060    9.9140 O.2    82  GLY82      -0.2717
     40  N         -2.5680  -18.1360   10.5830 N.am   83  GLY83      -0.1942
     41  CA        -2.1300  -16.7840   10.9430 C.3    83  GLY83       0.2014
     42  C         -2.6660  -15.7120   10.0060 C.2    83  GLY83       0.2639
     43  O         -2.5100  -14.5220   10.2470 O.2    83  GLY83      -0.2714
     44  N         -3.3130  -16.1340    8.9290 N.am   84  ARG84      -0.1963
     45  CA        -3.7390  -15.1780    7.9300 C.3    84  ARG84       0.1714
     46  C         -4.9490  -14.3660    8.4410 C.2    84  ARG84       0.2458
     47  O         -5.9350  -14.9630    8.8880 O.2    84  ARG84      -0.2730
     48  CB        -4.0110  -15.9050    6.6160 C.3    84  ARG84       0.0347
     49  CG        -5.3290  -15.6290    5.9840 C.3    84  ARG84       0.0492
     50  CD        -5.4090  -16.2960    4.6330 C.3    84  ARG84       0.2205
     51  NE        -4.9590  -15.3660    3.6140 N.pl3  84  ARG84      -0.0865
     52  CZ        -4.5210  -15.7180    2.4120 C.cat  84  ARG84       0.5346
     53  NH1       -4.4390  -17.0000    2.0730 N.pl3  84  ARG84       0.1354
     54  NH2       -4.1390  -14.7690    1.5630 N.pl3  84  ARG84       0.1354
     55  N         -4.8660  -13.0130    8.3860 N.am   85  PRO85      -0.2727
     56  CA        -6.0280  -12.1940    8.7680 C.3    85  PRO85       0.1402
     57  C         -7.1790  -12.3340    7.7650 C.2    85  PRO85       0.2269
     58  O         -6.9560  -12.5000    6.5820 O.2    85  PRO85      -0.2865
     59  CB        -5.4700  -10.7640    8.7500 C.3    85  PRO85       0.0296
     60  CG        -4.3620  -10.8170    7.7310 C.3    85  PRO85       0.0237
     61  CD        -3.7170  -12.1710    7.9880 C.3    85  PRO85       0.0939
     62  N         -4.8660   -7.7510    3.5500 N.3   108  SER108     -0.1202
     63  CA        -3.5230   -7.9620    4.0500 C.3   108  SER108      0.2020
     64  C         -3.1280   -6.7850    4.9470 C.2   108  SER108      0.2619
     65  O         -3.5660   -5.6340    4.7440 O.2   108  SER108     -0.2717
     66  CB        -2.5260   -8.0970    2.8870 C.3   108  SER108      0.2103
     67  OG        -1.2230   -8.4740    3.3750 O.3   108  SER108     -0.2182
     68  N         -2.3010   -7.0920    5.9470 N.am  109  LEU109     -0.1965
     69  CA        -1.8910   -6.1160    6.9600 C.3   109  LEU109      0.1728
     70  C         -0.3730   -6.0700    7.0830 C.2   109  LEU109      0.2617
     71  O          0.3000   -7.0730    6.8890 O.2   109  LEU109     -0.2715
     72  CB        -2.4330   -6.5150    8.3330 C.3   109  LEU109      0.0311
     73  CG        -3.9460   -6.7050    8.5040 C.3   109  LEU109      0.0022
     74  CD1       -4.3280   -7.0760    9.9690 C.3   109  LEU109      0.0001
     75  CD2       -4.6740   -5.4650    8.0210 C.3   109  LEU109      0.0001
     76  N          0.1360   -4.8960    7.4300 N.am  110  SER110     -0.1936
     77  CA         1.5590   -4.6800    7.6300 C.3   110  SER110      0.2055
     78  C          1.6890   -3.6410    8.7250 C.2   110  SER110      0.2643
     79  O          0.9400   -2.6620    8.7540 O.2   110  SER110     -0.2714
     80  CB         2.2150   -4.1730    6.3470 C.3   110  SER110      0.2130
     81  OG         3.5680   -3.7800    6.5460 O.3   110  SER110     -0.2179
     82  N          2.6270   -3.8560    9.6440 N.am  111  HIS111     -0.1959
     83  CA         3.0100   -2.7870   10.5490 C.3   111  HIS111      0.1787
     84  C          4.5090   -2.8000   10.7950 C.2   111  HIS111      0.2620
     85  O          5.0410   -3.7400   11.3980 O.2   111  HIS111     -0.2715
     86  CB         2.2160   -2.7580   11.8640 C.3   111  HIS111      0.0785
     87  CG         1.8960   -4.1040   12.4310 C.ar  111  HIS111      0.0821
     88  ND1        2.8340   -4.8970   13.0530 N.ar  111  HIS111     -0.2267
     89  CD2        0.7270   -4.7790   12.4990 C.ar  111  HIS111      0.1154
     90  CE1        2.2530   -6.0050   13.4790 C.ar  111  HIS111      0.1986
     91  NE2        0.9770   -5.9620   13.1420 N.ar  111  HIS111     -0.2212
     92  N          5.1530   -1.7510   10.2790 N.am  112  ASP112     -0.1971
     93  CA         6.6000   -1.5670   10.3260 C.3   112  ASP112      0.1709
     94  C          6.9320   -0.0660   10.2150 C.2   112  ASP112      0.2293
     95  O          6.1180    0.7230    9.7390 O.2   112  ASP112     -0.2864
     96  CB         7.2690   -2.3410    9.1760 C.3   112  ASP112      0.1436
     97  CG         8.7030   -2.7310    9.4900 C.2   112  ASP112      0.3671
     98  OD1        9.2820   -2.1710   10.4490 O.co2 112  ASP112     -0.2456
     99  OD2        9.2490   -3.6010    8.7800 O.co2 112  ASP112     -0.2456
@<TRIPOS>BOND
     1    54    52    1
     2    53    52    1
     3    52    51    2
     4    66    67    1
     5    66    63    1
     6    62    63    1
     7    51    50    1
     8    63    64    1
     9    50    49    1
    10    65    64    2
    11    64    68   am
    12    68    69    1
    13    49    48    1
    14    80    81    1
    15    80    77    1
    16    58    57    2
    17    48    45    1
    18    71    70    2
    19    69    70    1
    20    69    72    1
    21    70    76   am
    22    76    77    1
    23    77    78    1
    24    60    61    1
    25    60    59    1
    26    57    56    1
    27    45    46    1
    28    45    44    1
    29    61    55    1
    30    75    73    1
    31    72    73    1
    32    55    46   am
    33    55    56    1
    34    46    47    2
    35    73    74    1
    36    78    79    2
    37    78    82   am
    38    59    56    1
    39    99    97   ar
    40    44    42   am
    41    96    97    1
    42    96    93    1
    43    97    98   ar
    44    82    83    1
    45    95    94    2
    46    39    38    2
    47    37    38    1
    48    37    36    1
    49    42    43    2
    50    42    41    1
    51    38    40   am
    52    94    93    1
    53    92    93    1
    54    92    84   am
    55    83    84    1
    56    83    86    1
    57    40    41    1
    58    84    85    2
    59    21    20    2
    60    86    87    1
    61    20    19    1
    62    31    30    1
    63    31    32    2
    64    19    18    1
    65    19    22    1
    66    30    29    1
    67    30    33    1
    68    87    89   ar
    69    87    88   ar
    70    89    91   ar
    71    34    33    1
    72    88    90   ar
    73    91    90   ar
    74    33    35    1
    75    23    22    1
    76    23    24    1
    77    27    26    1
    78    28    26    1
    79    26    25    2
    80    25    24    1
    81    15    14    2
    82    14    13    1
    83    13    12    1
    84    13    16    1
    85    17    16    1
    86    10     9    1
    87     9    11    1
    88     9     8    2
    89     7     8    1
    90     7     6    1
    91     6     5    1
    92     5     2    1
    93     2     3    1
    94     2     1    1
    95     3     4    2
