@<TRIPOS>MOLECULE
tmp/2jc0A00.pdb
 195 184 0 0 0
SMALL
GASTEIGER

@<TRIPOS>ATOM
      1  N         23.4480   39.8300   41.9190 N.3   153  ARG153     -0.1245
      2  CA        22.4570   40.4100   41.0460 C.3   153  ARG153      0.1563
      3  C         23.0820   41.5750   40.2560 C.2   153  ARG153      0.2260
      4  O         24.0810   42.1810   40.6860 O.2   153  ARG153     -0.2867
      5  CB        21.2210   40.8970   41.8370 C.3   153  ARG153      0.0307
      6  CG        20.2630   39.7680   42.2960 C.3   153  ARG153      0.0489
      7  CD        18.8410   40.3300   42.7180 C.3   153  ARG153      0.2205
      8  NE        18.9290   41.5470   43.5410 N.pl3 153  ARG153     -0.0865
      9  CZ        17.9750   41.9790   44.3690 C.cat 153  ARG153      0.5346
     10  NH1       16.8260   41.3040   44.4900 N.pl3 153  ARG153      0.1354
     11  NH2       18.1590   43.1010   45.0770 N.pl3 153  ARG153      0.1354
     12  N          1.4780   47.6670   46.5610 N.3   188  PHE188     -0.1241
     13  CA         2.3030   48.7070   47.2050 C.3   188  PHE188      0.1605
     14  C          1.4760   49.8290   47.8040 C.2   188  PHE188      0.2264
     15  O          2.0220   50.6920   48.4420 O.2   188  PHE188     -0.2867
     16  CB         3.3380   49.2960   46.2140 C.3   188  PHE188      0.0534
     17  CG         4.4490   48.3310   45.8280 C.ar  188  PHE188     -0.0203
     18  CD1        5.3140   47.8000   46.8070 C.ar  188  PHE188     -0.0042
     19  CD2        4.6260   47.9530   44.4920 C.ar  188  PHE188     -0.0042
     20  CE1        6.3560   46.9110   46.4380 C.ar  188  PHE188     -0.0003
     21  CE2        5.6360   47.0790   44.1050 C.ar  188  PHE188     -0.0003
     22  CZ         6.5270   46.5440   45.0960 C.ar  188  PHE188     -0.0000
     23  N          2.3860   46.7430   55.6890 N.3   192  PRO192     -0.2116
     24  CA         2.2710   45.2900   55.9570 C.3   192  PRO192      0.1372
     25  C          0.9870   44.8630   56.6760 C.2   192  PRO192      0.2244
     26  O          0.4380   43.8260   56.3380 O.2   192  PRO192     -0.2868
     27  CB         3.5480   44.9780   56.7870 C.3   192  PRO192      0.0268
     28  CG         4.5280   45.9590   56.2650 C.3   192  PRO192      0.0207
     29  CD         3.6890   47.2630   56.1560 C.3   192  PRO192      0.0892
     30  N         -1.8430   44.9140   54.1190 N.3   195  ARG195     -0.1245
     31  CA        -1.6320   43.7680   53.2220 C.3   195  ARG195      0.1563
     32  C         -2.1200   42.4340   53.8300 C.2   195  ARG195      0.2260
     33  O         -2.7560   41.6220   53.1690 O.2   195  ARG195     -0.2867
     34  CB        -0.1430   43.6370   52.8650 C.3   195  ARG195      0.0307
     35  CG         0.1900   42.3520   52.0750 C.3   195  ARG195      0.0489
     36  CD         1.7170   42.1140   51.8760 C.3   195  ARG195      0.2205
     37  NE         1.9830   41.0140   50.9350 N.pl3 195  ARG195     -0.0865
     38  CZ         2.0200   41.1250   49.5920 C.cat 195  ARG195      0.5346
     39  NH1        1.8260   42.3110   48.9850 N.pl3 195  ARG195      0.1354
     40  NH2        2.2620   40.0420   48.8450 N.pl3 195  ARG195      0.1354
     41  N          3.0160   42.8360   43.3050 N.3   311  ASN311     -0.1240
     42  CA         4.0550   43.7920   43.7290 C.3   311  ASN311      0.1653
     43  C          5.2010   43.5320   42.7870 C.2   311  ASN311      0.2266
     44  O          5.8970   42.5460   42.9940 O.2   311  ASN311     -0.2867
     45  CB         4.5950   43.4330   45.1280 C.3   311  ASN311      0.1155
     46  CG         3.6220   43.7310   46.2450 C.2   311  ASN311      0.2627
     47  OD1        2.5250   43.1340   46.3690 O.2   311  ASN311     -0.2716
     48  ND2        4.0440   44.6130   47.1250 N.am  311  ASN311     -0.0877
     49  N          7.2800   41.9050   40.0350 N.3   313  ASP313     -0.1225
     50  CA         7.2550   40.4890   39.6310 C.3   313  ASP313      0.1805
     51  C          6.6340   39.5220   40.6670 C.2   313  ASP313      0.2597
     52  O          6.4690   38.3160   40.3920 O.2   313  ASP313     -0.2718
     53  CB         8.6610   40.0160   39.2750 C.3   313  ASP313      0.1424
     54  CG         9.5910   39.8050   40.5220 C.2   313  ASP313      0.3668
     55  OD1        9.1330   39.8960   41.6910 O.co2 313  ASP313     -0.2456
     56  OD2       10.7980   39.5120   40.3300 O.co2 313  ASP313     -0.2456
     57  N          6.3020   40.0110   41.8600 N.am  314  ASP314     -0.1974
     58  CA         5.7630   39.1030   42.8770 C.3   314  ASP314      0.1709
     59  C          4.2510   38.9980   42.7930 C.2   314  ASP314      0.2293
     60  O          3.5400   40.0160   42.7790 O.2   314  ASP314     -0.2864
     61  CB         6.2110   39.5200   44.2580 C.3   314  ASP314      0.1436
     62  CG         6.0850   38.4070   45.2490 C.2   314  ASP314      0.3671
     63  OD1        4.9290   38.1930   45.7600 O.co2 314  ASP314     -0.2456
     64  OD2        7.1420   37.7610   45.5050 O.co2 314  ASP314     -0.2456
     65  N          4.8430   35.2660   49.6400 N.3   360  SER360     -0.1202
     66  CA         4.9860   36.2380   48.5630 C.3   360  SER360      0.2020
     67  C          5.6780   37.4730   49.1350 C.2   360  SER360      0.2619
     68  O          5.4170   37.8710   50.3020 O.2   360  SER360     -0.2717
     69  CB         3.6490   36.6460   48.0170 C.3   360  SER360      0.2103
     70  OG         2.8410   37.0480   49.1230 O.3   360  SER360     -0.2182
     71  N          6.5600   38.0520   48.3050 N.am  361  CYS361     -0.1955
     72  CA         7.4750   39.1050   48.7330 C.3   361  CYS361      0.1843
     73  C          8.3010   38.5750   49.9150 C.2   361  CYS361      0.2626
     74  O          8.4850   39.2920   50.8820 O.2   361  CYS361     -0.2714
     75  CB         6.6840   40.3830   49.1040 C.3   361  CYS361      0.0997
     76  SG         5.8340   41.1760   47.6500 S.3   361  CYS361     -0.0797
     77  N          8.7200   37.2970   49.8240 N.am  362  SER362     -0.1936
     78  CA         9.4670   36.5370   50.8730 C.3   362  SER362      0.2055
     79  C          8.8350   36.4430   52.2720 C.2   362  SER362      0.2643
     80  O          9.5450   36.1280   53.2600 O.2   362  SER362     -0.2714
     81  CB        10.8760   37.0900   51.0460 C.3   362  SER362      0.2130
     82  OG        11.5360   37.1070   49.8120 O.3   362  SER362     -0.2179
     83  N          7.5170   36.6650   52.3300 N.am  363  SER363     -0.1949
     84  CA         6.7790   36.9620   53.5710 C.3   363  SER363      0.1924
     85  C          5.5210   36.1610   53.6190 C.2   363  SER363      0.2314
     86  O          5.0480   35.6950   52.5760 O.2   363  SER363     -0.2863
     87  CB         6.3590   38.4440   53.6230 C.3   363  SER363      0.2116
     88  OG         7.4470   39.3540   53.5080 O.3   363  SER363     -0.2180
     89  N          2.3560   40.1960   59.4150 N.3   379  LEU379     -0.1245
     90  CA         3.3010   39.7320   58.4220 C.3   379  LEU379      0.1561
     91  C          4.6930   39.4130   59.0070 C.2   379  LEU379      0.2260
     92  O          5.2960   40.2660   59.6620 O.2   379  LEU379     -0.2867
     93  CB         3.4170   40.7680   57.2690 C.3   379  LEU379      0.0270
     94  CG         3.9330   40.2000   55.9470 C.3   379  LEU379      0.0019
     95  CD1        2.7830   39.4780   55.1920 C.3   379  LEU379      0.0001
     96  CD2        4.6390   41.2870   55.0930 C.3   379  LEU379      0.0001
     97  N          8.5360   36.7070   58.0820 N.3   381  ARG381     -0.1245
     98  CA         9.3710   36.1060   57.0300 C.3   381  ARG381      0.1563
     99  C         10.4210   35.2510   57.6970 C.2   381  ARG381      0.2260
    100  O         10.6190   35.3600   58.9210 O.2   381  ARG381     -0.2867
    101  CB        10.0380   37.1480   56.1090 C.3   381  ARG381      0.0307
    102  CG        11.0400   38.1400   56.7760 C.3   381  ARG381      0.0489
    103  CD        11.9890   38.6980   55.6810 C.3   381  ARG381      0.2205
    104  NE        12.9090   37.6480   55.2530 N.pl3 381  ARG381     -0.0865
    105  CZ        13.4800   37.5430   54.0520 C.cat 381  ARG381      0.5346
    106  NH1       13.2410   38.4430   53.1230 N.pl3 381  ARG381      0.1354
    107  NH2       14.2940   36.5260   53.7810 N.pl3 381  ARG381      0.1354
    108  N         22.4010   40.0310   57.2880 N.3   389  ARG389     -0.1245
    109  CA        22.6300   41.4790   57.0020 C.3   389  ARG389      0.1563
    110  C         22.8500   42.3080   58.2500 C.2   389  ARG389      0.2260
    111  O         23.7160   43.1820   58.2450 O.2   389  ARG389     -0.2867
    112  CB        21.4770   42.0690   56.1680 C.3   389  ARG389      0.0307
    113  CG        21.3820   41.3910   54.8010 C.3   389  ARG389      0.0489
    114  CD        20.3330   41.9070   53.8090 C.3   389  ARG389      0.2205
    115  NE        20.4790   41.1070   52.5980 N.pl3 389  ARG389     -0.0865
    116  CZ        19.7640   41.2070   51.5050 C.cat 389  ARG389      0.5346
    117  NH1       18.7910   42.0980   51.4270 N.pl3 389  ARG389      0.1354
    118  NH2       19.9990   40.3500   50.5000 N.pl3 389  ARG389      0.1354
    119  N         19.5840   47.8080   56.4630 N.3   402  SER402     -0.1217
    120  CA        18.4820   46.8070   56.3940 C.3   402  SER402      0.1889
    121  C         17.9440   46.4510   57.7800 C.2   402  SER402      0.2288
    122  O         16.7590   46.1350   57.9170 O.2   402  SER402     -0.2866
    123  CB        18.9320   45.5450   55.6580 C.3   402  SER402      0.2089
    124  OG        19.7380   44.7410   56.5110 O.3   402  SER402     -0.2183
    125  N         15.1210   48.9990   58.2690 N.3   405  GLY405     -0.1210
    126  CA        13.9780   48.7070   57.3930 C.3   405  GLY405      0.1956
    127  C         13.2290   47.4540   57.8450 C.2   405  GLY405      0.2611
    128  O         12.0130   47.4240   57.8420 O.2   405  GLY405     -0.2717
    129  N         13.9530   46.4200   58.2410 N.am  406  ASN406     -0.1974
    130  CA        13.3260   45.2390   58.7850 C.3   406  ASN406      0.1688
    131  C         12.6020   45.4720   60.0780 C.2   406  ASN406      0.2292
    132  O         11.5450   44.8530   60.2950 O.2   406  ASN406     -0.2864
    133  CB        14.3460   44.0810   58.9700 C.3   406  ASN406      0.1181
    134  CG        14.7540   43.4620   57.6320 C.2   406  ASN406      0.2629
    135  OD1       13.8960   43.2270   56.7860 O.2   406  ASN406     -0.2716
    136  ND2       16.0490   43.2180   57.4390 N.am  406  ASN406     -0.0877
    137  N          9.3740   47.2730   58.8440 N.3   409  MET409     -0.1230
    138  CA         8.4230   46.4670   58.1090 C.3   409  MET409      0.1702
    139  C          7.9320   45.2660   58.9090 C.2   409  MET409      0.2592
    140  O          6.7620   44.9180   58.7950 O.2   409  MET409     -0.2718
    141  CB         8.9880   46.0990   56.7580 C.3   409  MET409      0.0401
    142  CG         9.1770   47.3380   55.9410 C.3   409  MET409      0.0596
    143  SD         7.6580   48.2120   55.5930 S.3   409  MET409     -0.1393
    144  CE         7.0590   47.2300   54.2110 C.3   409  MET409      0.0692
    145  N          8.7910   44.7100   59.7840 N.am  410  TYR410     -0.1976
    146  CA         8.4190   43.4950   60.5370 C.3   410  TYR410      0.1639
    147  C          8.4100   43.6820   62.0540 C.2   410  TYR410      0.2290
    148  O          8.7090   42.7460   62.8390 O.2   410  TYR410     -0.2864
    149  CB         9.3200   42.3090   60.1280 C.3   410  TYR410      0.0560
    150  CG         9.2620   41.9860   58.6430 C.ar  410  TYR410     -0.0198
    151  CD1        8.1660   41.2940   58.1050 C.ar  410  TYR410     -0.0009
    152  CD2       10.2880   42.3930   57.7660 C.ar  410  TYR410     -0.0009
    153  CE1        8.0680   41.0140   56.7170 C.ar  410  TYR410      0.0417
    154  CE2       10.2220   42.1230   56.3860 C.ar  410  TYR410      0.0417
    155  CZ         9.1160   41.4030   55.8680 C.ar  410  TYR410      0.1957
    156  OH         9.0260   41.0880   54.5070 O.3   410  TYR410     -0.2866
    157  N         15.6200   51.5930   53.2170 N.3   441  GLN441     -0.1231
    158  CA        14.7290   51.4640   52.1010 C.3   441  GLN441      0.1698
    159  C         13.4490   50.7110   52.4790 C.2   441  GLN441      0.2592
    160  O         13.4890   49.7530   53.2370 O.2   441  GLN441     -0.2718
    161  CB        15.4520   50.7490   50.9590 C.3   441  GLN441      0.0381
    162  CG        16.5000   51.6090   50.3490 C.3   441  GLN441      0.0905
    163  CD        16.9450   51.0500   49.0690 C.2   441  GLN441      0.2608
    164  OE1       16.8060   49.8560   48.8260 O.2   441  GLN441     -0.2717
    165  NE2       17.4680   51.8980   48.2200 N.am  441  GLN441     -0.0878
    166  N         12.3270   51.1890   51.9570 N.am  442  ILE442     -0.1966
    167  CA        11.0090   50.5750   52.1760 C.3   442  ILE442      0.1727
    168  C         10.2830   50.6530   50.8340 C.2   442  ILE442      0.2616
    169  O         10.1360   51.7860   50.2840 O.2   442  ILE442     -0.2715
    170  CB        10.2000   51.3650   53.2350 C.3   442  ILE442      0.0290
    171  CG1       10.8020   51.1800   54.6500 C.3   442  ILE442      0.0022
    172  CG2        8.6980   50.9680   53.2340 C.3   442  ILE442      0.0023
    173  CD1       10.4360   52.3400   55.5500 C.3   442  ILE442      0.0001
    174  N          9.8410   49.4890   50.3260 N.am  443  TYR443     -0.1960
    175  CA         9.2160   49.3810   48.9800 C.3   443  TYR443      0.1771
    176  C         10.1100   50.0980   47.9350 C.2   443  TYR443      0.2620
    177  O          9.6370   50.8970   47.1290 O.2   443  TYR443     -0.2715
    178  CB         7.8120   50.0120   48.9950 C.3   443  TYR443      0.0574
    179  CG         6.7420   49.1970   49.7030 C.ar  443  TYR443     -0.0198
    180  CD1        7.0480   47.9620   50.3110 C.ar  443  TYR443     -0.0009
    181  CD2        5.4270   49.6550   49.7600 C.ar  443  TYR443     -0.0009
    182  CE1        6.0530   47.2050   50.9570 C.ar  443  TYR443      0.0417
    183  CE2        4.4270   48.9200   50.3910 C.ar  443  TYR443      0.0417
    184  CZ         4.7370   47.7130   51.0010 C.ar  443  TYR443      0.1957
    185  OH         3.7390   46.9800   51.6200 O.3   443  TYR443     -0.2866
    186  N         11.4140   49.8750   48.0510 N.am  444  GLY444     -0.1954
    187  CA        12.3980   50.3780   47.1180 C.3   444  GLY444      0.1869
    188  C         12.8140   51.8330   47.2420 C.2   444  GLY444      0.2309
    189  O         13.7970   52.2000   46.6190 O.2   444  GLY444     -0.2863
    190  N         11.2970   50.2720   43.5170 N.3   551  SER551     -0.1217
    191  CA        12.5030   49.4400   43.4320 C.3   551  SER551      0.1889
    192  C         13.3620   49.8110   42.2180 C.2   551  SER551      0.2288
    193  O         12.8670   49.8060   41.0890 O.2   551  SER551     -0.2866
    194  CB        12.1430   47.9790   43.3490 C.3   551  SER551      0.2089
    195  OG        13.3350   47.2540   43.6010 O.3   551  SER551     -0.2183
@<TRIPOS>BOND
     1    53    50    1
     2    53    54    1
     3    50    49    1
     4    50    51    1
     5     3     4    2
     6     3     2    1
     7    56    54   ar
     8    52    51    2
     9    54    55   ar
    10    51    57   am
    11     2     5    1
    12     2     1    1
    13   193   192    2
    14     5     6    1
    15    57    58    1
    16   192   191    1
    17     6     7    1
    18     7     8    1
    19    60    59    2
    20    43    44    2
    21    43    42    1
    22    59    58    1
    23    58    61    1
    24    41    42    1
    25   194   191    1
    26   194   195    1
    27   191   190    1
    28     8     9    2
    29    42    45    1
    30    21    19   ar
    31    21    22   ar
    32    61    62    1
    33     9    10    1
    34     9    11    1
    35    19    17   ar
    36    22    20   ar
    37    45    46    1
    38    62    64   ar
    39    62    63   ar
    40    17    16    1
    41    17    18   ar
    42    16    13    1
    43    46    47    2
    44    46    48   am
    45    20    18   ar
    46    12    13    1
    47   189   188    2
    48   187   188    1
    49   187   186    1
    50   177   176    2
    51    13    14    1
    52    76    75    1
    53    14    15    2
    54   176   186   am
    55   176   175    1
    56    69    66    1
    57    69    70    1
    58   165   163   am
    59    71    72    1
    60    71    67   am
    61    66    67    1
    62    66    65    1
    63    72    75    1
    64    72    73    1
    65   164   163    2
    66    40    38    1
    67   175   178    1
    68   175   174    1
    69    39    38    1
    70   178   179    1
    71   163   162    1
    72    67    68    2
    73    38    37    2
    74   179   181   ar
    75   179   180   ar
    76   181   183   ar
    77    82    81    1
    78    77    73   am
    79    77    78    1
    80    73    74    2
    81   169   168    2
    82   180   182   ar
    83   174   168   am
    84   162   161    1
    85   183   184   ar
    86   118   116    1
    87   168   167    1
    88    78    81    1
    89    78    79    1
    90    37    36    1
    91   182   184   ar
    92   161   158    1
    93   184   185    1
    94   117   116    1
    95   116   115    2
    96    36    35    1
    97   166   167    1
    98   166   159   am
    99    35    34    1
   100   158   159    1
   101   158   157    1
   102   167   170    1
   103    79    83   am
   104    79    80    2
   105    83    84    1
   106   159   160    2
   107    86    85    2
   108   115   114    1
   109    34    31    1
   110   106   105    1
   111    33    32    2
   112    31    32    1
   113    31    30    1
   114   172   170    1
   115   170   171    1
   116    88    87    1
   117    84    85    1
   118    84    87    1
   119   107   105    1
   120   114   113    1
   121   105   104    2
   122   144   143    1
   123   156   155    1
   124   171   173    1
   125   113   112    1
   126    96    94    1
   127    95    94    1
   128   104   103    1
   129   143   142    1
   130   123   120    1
   131   123   124    1
   132   103   102    1
   133    23    24    1
   134    23    29    1
   135   155   154   ar
   136   155   153   ar
   137   142   141    1
   138    94    93    1
   139    24    25    1
   140    24    27    1
   141   101   102    1
   142   101    98    1
   143    29    28    1
   144   112   109    1
   145    28    27    1
   146    26    25    2
   147   154   152   ar
   148   120   119    1
   149   120   121    1
   150   153   151   ar
   151   141   138    1
   152   135   134    2
   153   109   108    1
   154   109   110    1
   155    98    99    1
   156    98    97    1
   157    93    90    1
   158   126   127    1
   159   126   125    1
   160   136   134   am
   161   134   133    1
   162    99   100    2
   163   152   150   ar
   164   121   122    2
   165   128   127    2
   166   127   129   am
   167   151   150   ar
   168   138   137    1
   169   138   139    1
   170   129   130    1
   171   111   110    2
   172    90    91    1
   173    90    89    1
   174   150   149    1
   175   130   133    1
   176   130   131    1
   177   140   139    2
   178   139   145   am
   179    91    92    2
   180   145   146    1
   181   131   132    2
   182   149   146    1
   183   146   147    1
   184   147   148    2
