@<TRIPOS>MOLECULE
tmp/2jc0A01.pdb
 127 123 0 0 0
SMALL
GASTEIGER

@<TRIPOS>ATOM
      1  N          8.4450   38.2270   66.1870 N.3   414  LEU414     -0.1245
      2  CA         9.2070   37.7960   67.3370 C.3   414  LEU414      0.1561
      3  C         10.7180   38.0650   67.0970 C.2   414  LEU414      0.2260
      4  O         11.4790   38.4400   67.9890 O.2   414  LEU414     -0.2867
      5  CB         8.8410   36.3460   67.5020 C.3   414  LEU414      0.0270
      6  CG         9.7030   35.2110   67.9680 C.3   414  LEU414      0.0019
      7  CD1        9.7920   35.2750   69.4960 C.3   414  LEU414      0.0001
      8  CD2        8.8140   34.0470   67.5260 C.3   414  LEU414      0.0001
      9  N         11.6350   42.0510   67.1170 N.3   417  ARG417     -0.1231
     10  CA        11.4990   42.5470   68.4870 C.3   417  ARG417      0.1694
     11  C         12.6250   42.0830   69.4200 C.2   417  ARG417      0.2591
     12  O         13.3750   42.9040   69.9630 O.2   417  ARG417     -0.2718
     13  CB        10.0890   42.1800   69.0190 C.3   417  ARG417      0.0321
     14  CG         9.0060   42.8140   68.2080 C.3   417  ARG417      0.0489
     15  CD         7.5940   42.3990   68.6750 C.3   417  ARG417      0.2205
     16  NE         7.2500   43.0680   69.9330 N.pl3 417  ARG417     -0.0865
     17  CZ         6.4320   42.5560   70.8300 C.cat 417  ARG417      0.5346
     18  NH1        5.9110   41.3680   70.6000 N.pl3 417  ARG417      0.1354
     19  NH2        6.1510   43.2230   71.9500 N.pl3 417  ARG417      0.1354
     20  N         12.7800   40.7660   69.5380 N.am  418  MET418     -0.1979
     21  CA        13.7420   40.1650   70.4410 C.3   418  MET418      0.1605
     22  C         15.1920   40.3880   70.0660 C.2   418  MET418      0.2287
     23  O         16.0030   40.5750   70.9610 O.2   418  MET418     -0.2864
     24  CB        13.4700   38.6540   70.6150 C.3   418  MET418      0.0413
     25  CG        12.1320   38.4490   71.3690 C.3   418  MET418      0.0598
     26  SD        11.6110   36.7870   71.8710 S.3   418  MET418     -0.1393
     27  CE        12.5740   36.5630   73.4010 C.3   418  MET418      0.0692
     28  N          2.7510   44.5570   72.0240 N.3   468  SER468     -0.1202
     29  CA         2.2550   43.5960   72.9740 C.3   468  SER468      0.2020
     30  C          1.8610   42.2510   72.4090 C.2   468  SER468      0.2619
     31  O          1.2690   41.4550   73.1210 O.2   468  SER468     -0.2717
     32  CB         1.1400   44.2030   73.8290 C.3   468  SER468      0.2103
     33  OG         0.1930   44.9180   73.0570 O.3   468  SER468     -0.2182
     34  N          2.2130   41.9620   71.1510 N.am  469  LEU469     -0.1965
     35  CA         2.0000   40.6090   70.6280 C.3   469  LEU469      0.1728
     36  C          2.7230   39.5970   71.4810 C.2   469  LEU469      0.2616
     37  O          3.8270   39.8610   72.0050 O.2   469  LEU469     -0.2715
     38  CB         2.4040   40.4340   69.1420 C.3   469  LEU469      0.0311
     39  CG         1.5250   41.2700   68.2090 C.3   469  LEU469      0.0022
     40  CD1        1.7250   40.9230   66.7560 C.3   469  LEU469      0.0001
     41  CD2        0.0190   41.1170   68.5970 C.3   469  LEU469      0.0001
     42  N          2.1020   38.4270   71.5860 N.am  470  HIS470     -0.1959
     43  CA         2.6980   37.3060   72.2630 C.3   470  HIS470      0.1787
     44  C          2.0200   36.0050   71.8140 C.2   470  HIS470      0.2621
     45  O          1.0760   36.0020   71.0020 O.2   470  HIS470     -0.2715
     46  CB         2.5960   37.4800   73.8000 C.3   470  HIS470      0.0785
     47  CG         1.2080   37.2960   74.3370 C.ar  470  HIS470      0.0821
     48  ND1        0.7550   36.0890   74.8500 N.ar  470  HIS470     -0.2267
     49  CD2        0.1650   38.1580   74.4130 C.ar  470  HIS470      0.1154
     50  CE1       -0.5000   36.2240   75.2250 C.ar  470  HIS470      0.1986
     51  NE2       -0.8800   37.4690   74.9750 N.ar  470  HIS470     -0.2212
     52  N          2.5070   34.8920   72.3340 N.am  471  SER471     -0.1936
     53  CA         1.8820   33.6190   72.0340 C.3   471  SER471      0.2055
     54  C          1.9070   33.4640   70.5050 C.2   471  SER471      0.2643
     55  O          0.8630   33.2780   69.8430 O.2   471  SER471     -0.2714
     56  CB         0.4310   33.6490   72.5810 C.3   471  SER471      0.2130
     57  OG        -0.0560   32.3450   72.7870 O.3   471  SER471     -0.2179
     58  N          3.1060   33.5440   69.9540 N.am  472  TYR472     -0.1973
     59  CA         3.3220   33.3140   68.5480 C.3   472  TYR472      0.1639
     60  C          3.0120   31.8530   68.1990 C.2   472  TYR472      0.2290
     61  O          2.8930   31.0220   69.1040 O.2   472  TYR472     -0.2864
     62  CB         4.7630   33.6840   68.1930 C.3   472  TYR472      0.0560
     63  CG         4.9940   35.1870   68.2310 C.ar  472  TYR472     -0.0198
     64  CD1        5.4850   35.7960   69.3660 C.ar  472  TYR472     -0.0009
     65  CD2        4.6970   35.9940   67.1320 C.ar  472  TYR472     -0.0009
     66  CE1        5.7160   37.1510   69.4060 C.ar  472  TYR472      0.0417
     67  CE2        4.8880   37.3670   67.1650 C.ar  472  TYR472      0.0417
     68  CZ         5.4060   37.9480   68.3150 C.ar  472  TYR472      0.1957
     69  OH         5.6250   39.3150   68.3960 O.3   472  TYR472     -0.2866
     70  N          7.6460   30.0840   65.7960 N.3   477  ILE477     -0.1245
     71  CA         8.6650   29.8250   66.8180 C.3   477  ILE477      0.1561
     72  C          9.6900   28.8220   66.3370 C.2   477  ILE477      0.2260
     73  O         10.8900   29.0720   66.4390 O.2   477  ILE477     -0.2867
     74  CB         8.0200   29.3700   68.1480 C.3   477  ILE477      0.0252
     75  CG1        7.2440   30.5320   68.7940 C.3   477  ILE477      0.0019
     76  CG2        9.0560   28.6720   69.1130 C.3   477  ILE477      0.0019
     77  CD1        6.3490   30.0690   70.0290 C.3   477  ILE477      0.0001
     78  N         15.9560   38.1710   75.8500 N.3   496  ARG496     -0.1245
     79  CA        15.1100   38.8130   76.8720 C.3   496  ARG496      0.1563
     80  C         15.9290   39.4710   77.9770 C.2   496  ARG496      0.2260
     81  O         15.6860   40.6150   78.3640 O.2   496  ARG496     -0.2867
     82  CB        14.0700   37.8730   77.4850 C.3   496  ARG496      0.0307
     83  CG        13.3250   38.5820   78.6300 C.3   496  ARG496      0.0489
     84  CD        12.3720   37.6880   79.4470 C.3   496  ARG496      0.2205
     85  NE        11.3150   37.1520   78.5860 N.pl3 496  ARG496     -0.0865
     86  CZ        11.3800   35.9330   78.0570 C.cat 496  ARG496      0.5346
     87  NH1       12.4380   35.1730   78.3400 N.pl3 496  ARG496      0.1354
     88  NH2       10.4130   35.4830   77.2430 N.pl3 496  ARG496      0.1354
     89  N          7.7770   43.9250   76.2180 N.3   523  TRP523     -0.1241
     90  CA         7.6380   42.4730   76.1950 C.3   523  TRP523      0.1605
     91  C          8.6740   41.8010   77.1130 C.2   523  TRP523      0.2264
     92  O          8.5210   40.6120   77.4870 O.2   523  TRP523     -0.2867
     93  CB         7.8480   41.9360   74.7710 C.3   523  TRP523      0.0550
     94  CG         9.2390   42.2700   74.1630 C.ar  523  TRP523      0.0003
     95  CD1        9.5410   43.3390   73.3680 C.ar  523  TRP523      0.0946
     96  CD2       10.4680   41.5380   74.3180 C.ar  523  TRP523      0.0152
     97  NE1       10.8650   43.3130   73.0180 N.ar  523  TRP523     -0.2442
     98  CE2       11.4590   42.2270   73.5980 C.ar  523  TRP523      0.0810
     99  CE3       10.8240   40.3680   75.0000 C.ar  523  TRP523      0.0012
    100  CZ2       12.7890   41.7780   73.5210 C.ar  523  TRP523      0.0191
    101  CZ3       12.1450   39.9290   74.9450 C.ar  523  TRP523      0.0001
    102  CH2       13.1110   40.6290   74.2050 C.ar  523  TRP523      0.0015
    103  N          9.7770   42.7130   80.2570 N.3   525  VAL525     -0.1231
    104  CA         9.5290   42.7970   81.7060 C.3   525  VAL525      0.1692
    105  C          8.4630   41.7840   82.1090 C.2   525  VAL525      0.2591
    106  O          7.5690   41.4850   81.3120 O.2   525  VAL525     -0.2718
    107  CB         9.0630   44.2230   82.1770 C.3   525  VAL525      0.0266
    108  CG1       10.1800   45.2130   82.1110 C.3   525  VAL525      0.0020
    109  CG2        7.8870   44.7240   81.3680 C.3   525  VAL525      0.0020
    110  N          8.5230   41.2810   83.3500 N.am  526  LYS526     -0.1980
    111  CA         7.4770   40.3460   83.8530 C.3   526  LYS526      0.1596
    112  C          6.1570   41.0580   84.0830 C.2   526  LYS526      0.2287
    113  O          5.0870   40.5700   83.7050 O.2   526  LYS526     -0.2864
    114  CB         7.9170   39.5730   85.1130 C.3   526  LYS526      0.0298
    115  CG         8.6170   40.4300   86.1990 C.3   526  LYS526      0.0038
    116  CD         9.4820   39.5560   87.1510 C.3   526  LYS526      0.0206
    117  CE        10.1950   40.4210   88.1970 C.3   526  LYS526      0.1093
    118  NZ        10.7770   39.5790   89.3070 N.3   526  LYS526     -0.1314
    119  N          4.0930   43.8870   82.8100 N.3   528  LYS528     -0.1245
    120  CA         3.9680   44.8360   81.7000 C.3   528  LYS528      0.1561
    121  C          3.3150   46.1340   82.1500 C.2   528  LYS528      0.2260
    122  O          2.3630   46.1140   82.9500 O.2   528  LYS528     -0.2867
    123  CB         3.1520   44.2220   80.5570 C.3   528  LYS528      0.0271
    124  CG         3.9660   43.4420   79.5370 C.3   528  LYS528      0.0035
    125  CD         4.3270   42.0800   80.0720 C.3   528  LYS528      0.0206
    126  CE         5.2980   41.4170   79.1580 C.3   528  LYS528      0.1093
    127  NZ         5.8820   40.1740   79.7470 N.3   528  LYS528     -0.1314
@<TRIPOS>BOND
     1    70    71    1
     2     1     2    1
     3    72    73    2
     4    72    71    1
     5    40    39    1
     6    71    74    1
     7     3     2    1
     8     3     4    2
     9     9    10    1
    10    65    67   ar
    11    65    63   ar
    12    67    68   ar
    13     2     5    1
    14     5     6    1
    15     8     6    1
    16     6     7    1
    17    74    75    1
    18    74    76    1
    19    62    63    1
    20    62    59    1
    21    60    59    1
    22    60    61    2
    23    14    15    1
    24    14    13    1
    25    39    41    1
    26    39    38    1
    27    63    64   ar
    28    68    69    1
    29    68    66   ar
    30    10    13    1
    31    10    11    1
    32    59    58    1
    33    15    16    1
    34    75    77    1
    35    38    35    1
    36    64    66   ar
    37    11    20   am
    38    11    12    2
    39    20    21    1
    40    55    54    2
    41    16    17    2
    42    58    54   am
    43    22    21    1
    44    22    23    2
    45    21    24    1
    46    54    53    1
    47    18    17    1
    48    24    25    1
    49    35    34    1
    50    35    36    1
    51    17    19    1
    52    45    44    2
    53    34    30   am
    54    25    26    1
    55    36    42   am
    56    36    37    2
    57    42    43    1
    58    44    43    1
    59    44    52   am
    60    26    27    1
    61    28    29    1
    62    53    52    1
    63    53    56    1
    64    43    46    1
    65    30    29    1
    66    30    31    2
    67    56    57    1
    68    29    32    1
    69    97    95   ar
    70    97    98   ar
    71    33    32    1
    72    95    94   ar
    73   100    98   ar
    74   100   102   ar
    75    98    96   ar
    76    46    47    1
    77    94    96   ar
    78    94    93    1
    79   102   101   ar
    80    96    99   ar
    81    47    49   ar
    82    47    48   ar
    83    49    51   ar
    84    93    90    1
    85    48    50   ar
    86   101    99   ar
    87    51    50   ar
    88    78    79    1
    89    90    89    1
    90    90    91    1
    91    79    82    1
    92    79    80    1
    93    91    92    2
    94    88    86    1
    95    82    83    1
    96    80    81    2
    97    86    87    1
    98    86    85    2
    99    85    84    1
   100    83    84    1
   101   126   127    1
   102   126   125    1
   103   124   125    1
   104   124   123    1
   105   103   104    1
   106   123   120    1
   107   106   105    2
   108   109   107    1
   109   120   121    1
   110   120   119    1
   111   104   105    1
   112   104   107    1
   113   105   110   am
   114   108   107    1
   115   121   122    2
   116   110   111    1
   117   113   112    2
   118   111   112    1
   119   111   114    1
   120   114   115    1
   121   115   116    1
   122   116   117    1
   123   117   118    1
