@<TRIPOS>MOLECULE
tmp/2jc1B00.pdb
 177 166 0 0 0
SMALL
GASTEIGER

@<TRIPOS>ATOM
      1  N         -1.8510   47.5780   -6.4480 N.3   188  PHE188     -0.1241
      2  CA        -2.6760   48.5630   -7.1230 C.3   188  PHE188      0.1605
      3  C         -1.8510   49.6070   -7.8840 C.2   188  PHE188      0.2264
      4  O         -2.4010   50.4730   -8.5750 O.2   188  PHE188     -0.2867
      5  CB        -3.6390   49.2160   -6.1150 C.3   188  PHE188      0.0534
      6  CG        -4.7460   48.3100   -5.6390 C.ar  188  PHE188     -0.0203
      7  CD1       -5.7610   47.8870   -6.5150 C.ar  188  PHE188     -0.0042
      8  CD2       -4.8010   47.8870   -4.3110 C.ar  188  PHE188     -0.0042
      9  CE1       -6.8020   47.0600   -6.0620 C.ar  188  PHE188     -0.0003
     10  CE2       -5.8310   47.0640   -3.8700 C.ar  188  PHE188     -0.0003
     11  CZ        -6.8400   46.6620   -4.7450 C.ar  188  PHE188     -0.0000
     12  N         -2.3810   46.5480  -15.9920 N.3   192  PRO192     -0.2116
     13  CA        -2.3280   45.1040  -16.2990 C.3   192  PRO192      0.1372
     14  C         -1.0110   44.6970  -16.9460 C.2   192  PRO192      0.2244
     15  O         -0.4590   43.6400  -16.6250 O.2   192  PRO192     -0.2868
     16  CB        -3.4850   44.9190  -17.2860 C.3   192  PRO192      0.0268
     17  CG        -4.4330   45.9810  -16.9130 C.3   192  PRO192      0.0207
     18  CD        -3.5390   47.1720  -16.6490 C.3   192  PRO192      0.0892
     19  N          1.5180   44.5210  -14.2070 N.3   195  ARG195     -0.1245
     20  CA         1.2500   43.4050  -13.3080 C.3   195  ARG195      0.1563
     21  C          1.7570   42.0930  -13.9110 C.2   195  ARG195      0.2260
     22  O          2.4110   41.2950  -13.2320 O.2   195  ARG195     -0.2867
     23  CB        -0.2470   43.3020  -12.9630 C.3   195  ARG195      0.0307
     24  CG        -0.5790   42.2310  -11.9170 C.3   195  ARG195      0.0489
     25  CD        -2.0900   42.1060  -11.6480 C.3   195  ARG195      0.2205
     26  NE        -2.3810   40.9290  -10.8070 N.pl3 195  ARG195     -0.0865
     27  CZ        -2.4810   40.9490   -9.4730 C.cat 195  ARG195      0.5346
     28  NH1       -2.3230   42.0880   -8.8090 N.pl3 195  ARG195      0.1354
     29  NH2       -2.7220   39.8200   -8.7970 N.pl3 195  ARG195      0.1354
     30  N         -3.7180   42.6920   -3.2950 N.3   311  ASN311     -0.1240
     31  CA        -4.7350   43.6590   -3.6680 C.3   311  ASN311      0.1653
     32  C         -5.8820   43.4540   -2.7210 C.2   311  ASN311      0.2266
     33  O         -6.6800   42.5530   -2.9320 O.2   311  ASN311     -0.2867
     34  CB        -5.2250   43.4060   -5.1050 C.3   311  ASN311      0.1155
     35  CG        -4.1510   43.6490   -6.1490 C.2   311  ASN311      0.2627
     36  OD1       -3.1610   42.9260   -6.2260 O.2   311  ASN311     -0.2716
     37  ND2       -4.3560   44.6780   -6.9720 N.am  311  ASN311     -0.0877
     38  N         -6.9550   39.9750   -1.7720 N.3   314  ASP314     -0.1239
     39  CA        -6.4650   39.0960   -2.8370 C.3   314  ASP314      0.1674
     40  C         -4.9630   38.9160   -2.6980 C.2   314  ASP314      0.2266
     41  O         -4.2220   39.8810   -2.8230 O.2   314  ASP314     -0.2867
     42  CB        -6.8010   39.6530   -4.2310 C.3   314  ASP314      0.1410
     43  CG        -6.6930   38.5850   -5.3150 C.2   314  ASP314      0.3668
     44  OD1       -5.5620   38.1650   -5.6460 O.co2 314  ASP314     -0.2456
     45  OD2       -7.7550   38.1630   -5.8110 O.co2 314  ASP314     -0.2456
     46  N         -6.2240   38.2080   -8.4530 N.3   361  CYS361     -0.1221
     47  CA        -7.2540   39.1590   -8.8910 C.3   361  CYS361      0.1808
     48  C         -8.1100   38.5600  -10.0130 C.2   361  CYS361      0.2602
     49  O         -8.3190   39.1760  -11.0640 O.2   361  CYS361     -0.2717
     50  CB        -6.6520   40.5090   -9.2940 C.3   361  CYS361      0.0970
     51  SG        -5.8850   41.4090   -7.9160 S.3   361  CYS361     -0.0800
     52  N         -8.5820   37.3400   -9.7570 N.am  362  SER362     -0.1938
     53  CA        -9.4750   36.5860  -10.6490 C.3   362  SER362      0.2055
     54  C         -8.9190   36.4140  -12.0760 C.2   362  SER362      0.2643
     55  O         -9.6740   36.1940  -13.0120 O.2   362  SER362     -0.2714
     56  CB       -10.8960   37.2070  -10.6680 C.3   362  SER362      0.2130
     57  OG       -11.2500   37.6980   -9.3730 O.3   362  SER362     -0.2179
     58  N         -7.5980   36.4840  -12.2130 N.am  363  SER363     -0.1949
     59  CA        -6.9430   36.5270  -13.5110 C.3   363  SER363      0.1924
     60  C         -5.7380   35.5850  -13.5400 C.2   363  SER363      0.2314
     61  O         -5.1680   35.2820  -12.4910 O.2   363  SER363     -0.2863
     62  CB        -6.4570   37.9410  -13.7980 C.3   363  SER363      0.2116
     63  OG        -7.5280   38.8620  -13.7950 O.3   363  SER363     -0.2180
     64  N         -2.7360   39.2390  -19.1770 N.3   379  LEU379     -0.1245
     65  CA        -3.6180   38.6860  -18.1610 C.3   379  LEU379      0.1561
     66  C         -5.0000   38.4830  -18.7490 C.2   379  LEU379      0.2260
     67  O         -5.5240   39.3370  -19.4700 O.2   379  LEU379     -0.2867
     68  CB        -3.6630   39.6050  -16.9190 C.3   379  LEU379      0.0270
     69  CG        -2.3680   39.5220  -16.1070 C.3   379  LEU379      0.0019
     70  CD1       -2.0970   40.7850  -15.2940 C.3   379  LEU379      0.0001
     71  CD2       -2.3590   38.2870  -15.2150 C.3   379  LEU379      0.0001
     72  N         -8.8930   35.9340  -18.0760 N.3   381  ARG381     -0.1245
     73  CA        -9.7250   35.2180  -17.1140 C.3   381  ARG381      0.1563
     74  C        -10.7730   34.4240  -17.8510 C.2   381  ARG381      0.2260
     75  O        -11.0200   34.6550  -19.0330 O.2   381  ARG381     -0.2867
     76  CB       -10.3920   36.1780  -16.1000 C.3   381  ARG381      0.0307
     77  CG       -11.2560   37.3400  -16.6800 C.3   381  ARG381      0.0489
     78  CD       -12.1530   37.9450  -15.5820 C.3   381  ARG381      0.2205
     79  NE       -13.1710   36.9840  -15.1350 N.pl3 381  ARG381     -0.0865
     80  CZ       -13.7870   37.0090  -13.9530 C.cat 381  ARG381      0.5346
     81  NH1      -13.5120   37.9620  -13.0700 N.pl3 381  ARG381      0.1354
     82  NH2      -14.6780   36.0760  -13.6470 N.pl3 381  ARG381      0.1354
     83  N        -22.4930   39.5100  -17.3230 N.3   389  ARG389     -0.1245
     84  CA       -22.7440   40.9170  -16.9890 C.3   389  ARG389      0.1563
     85  C        -22.9890   41.7690  -18.2340 C.2   389  ARG389      0.2260
     86  O        -23.8700   42.6280  -18.2360 O.2   389  ARG389     -0.2867
     87  CB       -21.6010   41.4480  -16.1230 C.3   389  ARG389      0.0307
     88  CG       -21.6620   40.8360  -14.7140 C.3   389  ARG389      0.0489
     89  CD       -20.4610   41.1610  -13.8190 C.3   389  ARG389      0.2205
     90  NE       -20.6540   40.4520  -12.5450 N.pl3 389  ARG389     -0.0865
     91  CZ       -19.8570   40.5320  -11.4960 C.cat 389  ARG389      0.5346
     92  NH1      -18.7890   41.3200  -11.5380 N.pl3 389  ARG389      0.1354
     93  NH2      -20.1480   39.8310  -10.3930 N.pl3 389  ARG389      0.1354
     94  N        -22.9860   51.1970  -13.4570 N.3   400  VAL400     -0.1245
     95  CA       -21.6080   50.8510  -13.7930 C.3   400  VAL400      0.1561
     96  C        -21.6360   49.8950  -14.9890 C.2   400  VAL400      0.2260
     97  O        -22.3430   48.8690  -14.9790 O.2   400  VAL400     -0.2867
     98  CB       -20.8400   50.2300  -12.5780 C.3   400  VAL400      0.0252
     99  CG1      -19.4530   49.7320  -12.9820 C.3   400  VAL400      0.0019
    100  CG2      -20.7140   51.2650  -11.4070 C.3   400  VAL400      0.0019
    101  N        -19.8390   47.3630  -16.6920 N.3   402  SER402     -0.1217
    102  CA       -18.7410   46.4260  -16.5320 C.3   402  SER402      0.1889
    103  C        -18.1370   46.0410  -17.8790 C.2   402  SER402      0.2288
    104  O        -16.9510   45.7360  -17.9520 O.2   402  SER402     -0.2866
    105  CB       -19.1670   45.1880  -15.7400 C.3   402  SER402      0.2089
    106  OG       -20.1430   44.4250  -16.4290 O.3   402  SER402     -0.2183
    107  N        -15.3180   48.5660  -18.4940 N.3   405  GLY405     -0.1210
    108  CA       -14.2140   48.2200  -17.5820 C.3   405  GLY405      0.1956
    109  C        -13.5040   46.9530  -18.0710 C.2   405  GLY405      0.2611
    110  O        -12.2650   46.8880  -18.1100 O.2   405  GLY405     -0.2717
    111  N        -14.2840   45.9480  -18.4600 N.am  406  ASN406     -0.1974
    112  CA       -13.7040   44.7200  -19.0170 C.3   406  ASN406      0.1688
    113  C        -12.9070   44.9070  -20.3070 C.2   406  ASN406      0.2292
    114  O        -11.8170   44.3390  -20.4490 O.2   406  ASN406     -0.2864
    115  CB       -14.7450   43.6220  -19.1240 C.3   406  ASN406      0.1181
    116  CG       -15.0120   42.9960  -17.7810 C.2   406  ASN406      0.2629
    117  OD1      -14.0830   42.8900  -16.9700 O.2   406  ASN406     -0.2716
    118  ND2      -16.2580   42.6120  -17.5120 N.am  406  ASN406     -0.0877
    119  N         -9.5620   46.7190  -19.1770 N.3   409  MET409     -0.1230
    120  CA        -8.6160   45.9340  -18.3760 C.3   409  MET409      0.1702
    121  C         -8.2020   44.6130  -19.0370 C.2   409  MET409      0.2592
    122  O         -7.0890   44.0960  -18.7760 O.2   409  MET409     -0.2718
    123  CB        -9.1710   45.7020  -16.9590 C.3   409  MET409      0.0401
    124  CG        -9.3690   47.0380  -16.1850 C.3   409  MET409      0.0596
    125  SD        -7.8020   47.9130  -15.9050 S.3   409  MET409     -0.1393
    126  CE        -7.2050   46.9660  -14.4970 C.3   409  MET409      0.0692
    127  N         -9.0800   44.0900  -19.8990 N.am  410  TYR410     -0.1976
    128  CA        -8.8000   42.8530  -20.6220 C.3   410  TYR410      0.1639
    129  C         -8.6960   43.0390  -22.1430 C.2   410  TYR410      0.2290
    130  O         -8.9200   42.0900  -22.8940 O.2   410  TYR410     -0.2864
    131  CB        -9.8190   41.7710  -20.2800 C.3   410  TYR410      0.0560
    132  CG        -9.7660   41.3440  -18.8320 C.ar  410  TYR410     -0.0198
    133  CD1       -8.7320   40.5190  -18.3670 C.ar  410  TYR410     -0.0009
    134  CD2      -10.7210   41.8020  -17.9130 C.ar  410  TYR410     -0.0009
    135  CE1       -8.6630   40.1310  -17.0380 C.ar  410  TYR410      0.0417
    136  CE2      -10.6650   41.4240  -16.5670 C.ar  410  TYR410      0.0417
    137  CZ        -9.6210   40.5860  -16.1450 C.ar  410  TYR410      0.1957
    138  OH        -9.5500   40.1750  -14.8490 O.3   410  TYR410     -0.2866
    139  N        -15.8730   51.2150  -13.6070 N.3   441  GLN441     -0.1231
    140  CA       -14.9780   51.0840  -12.4680 C.3   441  GLN441      0.1698
    141  C        -13.6880   50.3790  -12.8430 C.2   441  GLN441      0.2592
    142  O        -13.7060   49.4080  -13.6070 O.2   441  GLN441     -0.2718
    143  CB       -15.6640   50.3800  -11.2980 C.3   441  GLN441      0.0381
    144  CG       -16.6870   51.2390  -10.5910 C.3   441  GLN441      0.0905
    145  CD       -17.1800   50.6340   -9.2720 C.2   441  GLN441      0.2608
    146  OE1      -17.0060   49.4480   -9.0030 O.2   441  GLN441     -0.2717
    147  NE2      -17.8150   51.4620   -8.4510 N.am  441  GLN441     -0.0878
    148  N        -12.5790   50.9020  -12.3180 N.am  442  ILE442     -0.1966
    149  CA       -11.2540   50.2830  -12.3960 C.3   442  ILE442      0.1727
    150  C        -10.6540   50.3270  -10.9930 C.2   442  ILE442      0.2616
    151  O        -10.5020   51.4110  -10.4180 O.2   442  ILE442     -0.2715
    152  CB       -10.3050   51.0560  -13.3160 C.3   442  ILE442      0.0290
    153  CG1      -10.8310   51.0810  -14.7630 C.3   442  ILE442      0.0022
    154  CG2       -8.8740   50.4490  -13.2530 C.3   442  ILE442      0.0023
    155  CD1      -10.1150   52.0880  -15.6340 C.3   442  ILE442      0.0001
    156  N        -10.3050   49.1520  -10.4570 N.am  443  TYR443     -0.1960
    157  CA        -9.8410   49.0040   -9.0710 C.3   443  TYR443      0.1771
    158  C        -10.7960   49.6950   -8.0880 C.2   443  TYR443      0.2620
    159  O        -10.3460   50.3520   -7.1620 O.2   443  TYR443     -0.2715
    160  CB        -8.4100   49.5370   -8.8610 C.3   443  TYR443      0.0574
    161  CG        -7.2840   48.7780   -9.5690 C.ar  443  TYR443     -0.0198
    162  CD1       -7.3460   47.4070   -9.7620 C.ar  443  TYR443     -0.0009
    163  CD2       -6.1440   49.4400  -10.0060 C.ar  443  TYR443     -0.0009
    164  CE1       -6.3160   46.7170  -10.4040 C.ar  443  TYR443      0.0417
    165  CE2       -5.1000   48.7540  -10.6360 C.ar  443  TYR443      0.0417
    166  CZ        -5.2070   47.3900  -10.8400 C.ar  443  TYR443      0.1957
    167  OH        -4.1930   46.6910  -11.4770 O.3   443  TYR443     -0.2866
    168  N        -12.0990   49.5640   -8.3280 N.am  444  GLY444     -0.1954
    169  CA       -13.1260   50.1800   -7.4980 C.3   444  GLY444      0.1869
    170  C        -13.3480   51.6770   -7.6510 C.2   444  GLY444      0.2309
    171  O        -14.3180   52.2040   -7.1090 O.2   444  GLY444     -0.2863
    172  N        -11.6300   50.5280   -3.7140 N.3   538  SER538     -0.1217
    173  CA       -12.8800   49.7820   -3.7620 C.3   538  SER538      0.1889
    174  C        -13.6910   49.9470   -2.4620 C.2   538  SER538      0.2288
    175  O        -13.1680   49.7390   -1.3720 O.2   538  SER538     -0.2866
    176  CB       -12.6110   48.3080   -4.0880 C.3   538  SER538      0.2089
    177  OG       -13.8360   47.6210   -4.3050 O.3   538  SER538     -0.2183
@<TRIPOS>BOND
     1   130   129    2
     2   129   128    1
     3   128   131    1
     4   128   127    1
     5   114   113    2
     6   113   112    1
     7   131   132    1
     8   127   121   am
     9    67    66    2
    10   119   120    1
    11    64    65    1
    12   115   112    1
    13   115   116    1
    14   121   122    2
    15   121   120    1
    16    75    74    2
    17   112   111    1
    18   132   133   ar
    19   132   134   ar
    20    66    65    1
    21   107   108    1
    22   111   109   am
    23   120   123    1
    24   133   135   ar
    25    86    85    2
    26    85    84    1
    27    65    68    1
    28   110   109    2
    29    72    73    1
    30   109   108    1
    31   104   103    2
    32   134   136   ar
    33   103   102    1
    34    74    73    1
    35   116   118   am
    36   116   117    2
    37    83    84    1
    38    16    17    1
    39    16    13    1
    40    73    76    1
    41   135   137   ar
    42    84    87    1
    43   123   124    1
    44    14    15    2
    45    14    13    1
    46    68    69    1
    47    17    18    1
    48   101   102    1
    49    77    76    1
    50    77    78    1
    51    18    12    1
    52   136   137   ar
    53   102   105    1
    54   106   105    1
    55    13    12    1
    56   124   125    1
    57   137   138    1
    58    87    88    1
    59    69    70    1
    60    69    71    1
    61   125   126    1
    62   155   153    1
    63    78    79    1
    64    79    80    2
    65    96    97    2
    66    96    95    1
    67   153   152    1
    68    88    89    1
    69    19    20    1
    70    80    82    1
    71    80    81    1
    72    21    20    1
    73    21    22    2
    74    89    90    1
    75    62    63    1
    76    62    59    1
    77    95    94    1
    78    95    98    1
    79   139   140    1
    80   142   141    2
    81    60    59    1
    82    60    61    2
    83    59    58    1
    84   152   154    1
    85   152   149    1
    86    20    23    1
    87    55    54    2
    88    99    98    1
    89    23    24    1
    90   141   140    1
    91   141   148   am
    92    98   100    1
    93    90    91    2
    94   140   143    1
    95   149   148    1
    96   149   150    1
    97    58    54   am
    98    54    53    1
    99    24    25    1
   100    25    26    1
   101    92    91    1
   102    91    93    1
   103   167   166    1
   104   143   144    1
   105    49    48    2
   106   150   156   am
   107   150   151    2
   108   166   165   ar
   109   166   164   ar
   110    26    27    2
   111    56    53    1
   112    56    57    1
   113    53    52    1
   114   165   163   ar
   115   144   145    1
   116   156   157    1
   117   164   162   ar
   118    48    52   am
   119    48    47    1
   120   163   161   ar
   121   162   161   ar
   122   161   160    1
   123    27    28    1
   124    27    29    1
   125    50    47    1
   126    50    51    1
   127   145   146    2
   128   145   147   am
   129   157   160    1
   130   157   158    1
   131    47    46    1
   132     4     3    2
   133   168   158   am
   134   168   169    1
   135   158   159    2
   136     3     2    1
   137   170   169    1
   138   170   171    2
   139     2     1    1
   140     2     5    1
   141    37    35   am
   142     7     9   ar
   143     7     6   ar
   144    36    35    2
   145    35    34    1
   146     5     6    1
   147     9    11   ar
   148    45    43   ar
   149    44    43   ar
   150     6     8   ar
   151    43    42    1
   152    34    31    1
   153    11    10   ar
   154     8    10   ar
   155   177   176    1
   156    42    39    1
   157   176   173    1
   158   173   172    1
   159   173   174    1
   160    31    30    1
   161    31    32    1
   162    33    32    2
   163    39    40    1
   164    39    38    1
   165    41    40    2
   166   174   175    2
