@<TRIPOS>MOLECULE
tmp/2jc3A00.pdb
 150 144 0 0 0
SMALL
GASTEIGER

@<TRIPOS>ATOM
      1  N         -9.6820    0.7750    3.3760 N.3    40  VAL40      -0.1231
      2  CA       -10.4060    1.7290    4.2120 C.3    40  VAL40       0.1692
      3  C        -10.7980    1.1060    5.5660 C.2    40  VAL40       0.2591
      4  O        -11.0720    1.8230    6.5170 O.2    40  VAL40      -0.2718
      5  CB       -11.7010    2.1790    3.4990 C.3    40  VAL40       0.0266
      6  CG1      -12.6190    0.9820    3.3220 C.3    40  VAL40       0.0020
      7  CG2      -12.3870    3.2770    4.2790 C.3    40  VAL40       0.0020
      8  N        -10.8310   -0.2240    5.6520 N.am   41  LYS41      -0.1980
      9  CA       -11.2320   -0.8760    6.8930 C.3    41  LYS41       0.1596
     10  C        -10.3090   -0.6070    8.0740 C.2    41  LYS41       0.2287
     11  O        -10.7530   -0.6480    9.2310 O.2    41  LYS41      -0.2864
     12  CB       -11.3800   -2.3960    6.6880 C.3    41  LYS41       0.0298
     13  CG       -12.6570   -2.8340    5.9530 C.3    41  LYS41       0.0038
     14  CD       -13.8730   -1.9910    6.3910 C.3    41  LYS41       0.0206
     15  CE       -15.1810   -2.5340    5.8130 C.3    41  LYS41       0.1093
     16  NZ       -15.1440   -2.7330    4.3260 N.3    41  LYS41      -0.1314
     17  N        -11.7960   -7.3330    3.9920 N.3    71  ASN71      -0.1240
     18  CA       -10.9420   -6.2740    4.5220 C.3    71  ASN71       0.1653
     19  C        -11.1320   -6.0440    6.0190 C.2    71  ASN71       0.2266
     20  O        -10.1650   -5.7250    6.7290 O.2    71  ASN71      -0.2867
     21  CB       -11.1670   -4.9740    3.7520 C.3    71  ASN71       0.1155
     22  CG       -10.6740   -5.0760    2.3460 C.2    71  ASN71       0.2627
     23  OD1       -9.6520   -5.7150    2.0790 O.2    71  ASN71      -0.2716
     24  ND2      -11.3910   -4.4550    1.4310 N.am   71  ASN71      -0.0877
     25  N        -17.5810    2.7700   14.1720 N.3   146  ASN146     -0.1240
     26  CA       -17.2010    2.5690   12.7780 C.3   146  ASN146      0.1653
     27  C        -17.3290    3.9550   12.0930 C.2   146  ASN146      0.2266
     28  O        -16.3190    4.5730   11.7190 O.2   146  ASN146     -0.2867
     29  CB       -18.1370    1.5340   12.1590 C.3   146  ASN146      0.1155
     30  CG       -17.8900    1.3220   10.6920 C.2   146  ASN146      0.2627
     31  OD1      -17.3380    2.1950   10.0150 O.2   146  ASN146     -0.2716
     32  ND2      -18.3140    0.1600   10.1760 N.am  146  ASN146     -0.0877
     33  N        -14.7510    7.8760   10.5240 N.3   150  HIS150     -0.1241
     34  CA       -14.8460    8.7150    9.3510 C.3   150  HIS150      0.1621
     35  C        -15.3630   10.1040    9.6630 C.2   150  HIS150      0.2264
     36  O        -15.1280   11.0570    8.9010 O.2   150  HIS150     -0.2867
     37  CB       -15.7030    8.0180    8.3020 C.3   150  HIS150      0.0745
     38  CG       -15.1570    6.6880    7.8940 C.ar  150  HIS150      0.0817
     39  ND1      -15.6820    5.4940    8.3430 N.ar  150  HIS150     -0.2268
     40  CD2      -14.0710    6.3630    7.1580 C.ar  150  HIS150      0.1154
     41  CE1      -14.9420    4.4880    7.9060 C.ar  150  HIS150      0.1986
     42  NE2      -13.9540    4.9890    7.1880 N.ar  150  HIS150     -0.2212
     43  N        -19.6490    7.3060   -2.4030 N.3   171  SER171     -0.1202
     44  CA       -19.1230    6.1570   -1.6730 C.3   171  SER171      0.2020
     45  C        -19.8720    4.8670   -1.8990 C.2   171  SER171      0.2619
     46  O        -21.0930    4.8400   -1.8190 O.2   171  SER171     -0.2717
     47  CB       -19.1350    6.4450   -0.1520 C.3   171  SER171      0.2103
     48  OG       -18.8770    5.2660    0.6160 O.3   171  SER171     -0.2182
     49  N        -19.1430    3.7990   -2.1790 N.am  172  SER172     -0.1937
     50  CA       -19.7710    2.5040   -2.3230 C.3   172  SER172      0.2055
     51  C        -20.0880    2.0540   -0.8990 C.2   172  SER172      0.2643
     52  O        -19.1920    2.0540   -0.0550 O.2   172  SER172     -0.2714
     53  CB       -18.8120    1.5060   -2.9450 C.3   172  SER172      0.2130
     54  OG       -18.5430    1.8760   -4.2760 O.3   172  SER172     -0.2179
     55  N        -21.3330    1.6360   -0.6480 N.am  173  MET173     -0.1962
     56  CA       -21.7660    1.2430    0.6880 C.3   173  MET173      0.1736
     57  C        -21.6740   -0.2310    1.0380 C.2   173  MET173      0.2617
     58  O        -22.2310   -1.0810    0.3530 O.2   173  MET173     -0.2715
     59  CB       -23.1960    1.7410    0.9260 C.3   173  MET173      0.0427
     60  CG       -23.3280    3.2330    0.6970 C.3   173  MET173      0.0599
     61  SD       -24.9980    3.8430    0.8020 S.3   173  MET173     -0.1393
     62  CE       -25.8820    2.6150   -0.2440 C.3   173  MET173      0.0692
     63  N        -20.9280   -0.5100    2.1130 N.am  174  GLY174     -0.1940
     64  CA       -20.7650   -1.8580    2.6400 C.3   174  GLY174      0.2014
     65  C        -21.4870   -1.7870    3.9840 C.2   174  GLY174      0.2640
     66  O        -22.6870   -2.0400    4.0640 O.2   174  GLY174     -0.2714
     67  N        -20.7780   -1.4110    5.0390 N.am  175  THR175     -0.1936
     68  CA       -21.3990   -1.2660    6.3480 C.3   175  THR175      0.2028
     69  C        -22.1130    0.0970    6.3500 C.2   175  THR175      0.2643
     70  O        -23.0620    0.3200    7.0810 O.2   175  THR175     -0.2714
     71  CB       -20.3290   -1.2440    7.4650 C.3   175  THR175      0.1808
     72  OG1      -19.4860   -0.0980    7.2810 O.3   175  THR175     -0.2208
     73  CG2      -19.4880   -2.5070    7.4470 C.3   175  THR175      0.0379
     74  N        -21.6320    0.9960    5.5120 N.am  176  THR176     -0.1936
     75  CA       -22.1220    2.3720    5.3770 C.3   176  THR176      0.2028
     76  C        -21.4570    3.2660    6.4140 C.2   176  THR176      0.2643
     77  O        -21.8440    4.4330    6.6060 O.2   176  THR176     -0.2714
     78  CB       -23.6960    2.5240    5.4630 C.3   176  THR176      0.1808
     79  OG1      -24.1530    2.4130    6.8170 O.3   176  THR176     -0.2208
     80  CG2      -24.3770    1.4690    4.6020 C.3   176  THR176      0.0379
     81  N        -20.4470    2.7230    7.0930 N.am  177  GLY177     -0.1939
     82  CA       -19.7280    3.5360    8.0670 C.3   177  GLY177      0.2014
     83  C        -19.0400    4.7300    7.4020 C.2   177  GLY177      0.2640
     84  O        -19.0940    5.8720    7.9050 O.2   177  GLY177     -0.2714
     85  N        -18.4090    4.4920    6.2530 N.am  178  THR178     -0.1936
     86  CA       -17.7150    5.5680    5.5710 C.3   178  THR178      0.2028
     87  C        -18.6390    6.6750    5.1270 C.2   178  THR178      0.2642
     88  O        -18.3590    7.8600    5.3870 O.2   178  THR178     -0.2714
     89  CB       -16.9550    5.0970    4.2970 C.3   178  THR178      0.1808
     90  OG1      -16.0160    4.0660    4.6140 O.3   178  THR178     -0.2208
     91  CG2      -16.1930    6.2750    3.6750 C.3   178  THR178      0.0379
     92  N        -19.7400    6.3190    4.4520 N.am  179  ILE179     -0.1977
     93  CA       -20.6160    7.3680    3.9630 C.3   179  ILE179      0.1596
     94  C        -21.3220    8.0800    5.1080 C.2   179  ILE179      0.2287
     95  O        -21.4860    9.3150    5.0990 O.2   179  ILE179     -0.2864
     96  CB       -21.6160    6.8290    2.8930 C.3   179  ILE179      0.0276
     97  CG1      -22.3320    8.0090    2.2180 C.3   179  ILE179      0.0022
     98  CG2      -22.5870    5.8610    3.5080 C.3   179  ILE179      0.0022
     99  CD1      -23.1710    7.5990    1.0020 C.3   179  ILE179      0.0001
    100  N        -17.3690   -7.2790   -4.7610 N.3   207  PRO207     -0.2102
    101  CA       -16.6690   -7.5830   -3.4960 C.3   207  PRO207      0.1504
    102  C        -16.5620   -6.4110   -2.5320 C.2   207  PRO207      0.2576
    103  O        -16.2070   -5.2970   -2.9390 O.2   207  PRO207     -0.2718
    104  CB       -15.3070   -8.0540   -3.9580 C.3   207  PRO207      0.0282
    105  CG       -15.5780   -8.6230   -5.2870 C.3   207  PRO207      0.0208
    106  CD       -16.5100   -7.6140   -5.9060 C.3   207  PRO207      0.0893
    107  N        -16.8740   -6.6500   -1.2580 N.am  208  GLY208     -0.1943
    108  CA       -16.7910   -5.5780   -0.2860 C.3   208  GLY208      0.2014
    109  C        -18.1040   -4.8940    0.0360 C.2   208  GLY208      0.2638
    110  O        -18.2560   -4.3280    1.1340 O.2   208  GLY208     -0.2714
    111  N        -19.0390   -4.8960   -0.9080 N.am  209  ILE209     -0.1977
    112  CA       -20.3290   -4.2980   -0.6340 C.3   209  ILE209      0.1596
    113  C        -21.3930   -5.3240   -0.9480 C.2   209  ILE209      0.2287
    114  O        -21.0740   -6.4470   -1.3580 O.2   209  ILE209     -0.2864
    115  CB       -20.6010   -3.0410   -1.4620 C.3   209  ILE209      0.0276
    116  CG1      -20.5320   -3.3640   -2.9530 C.3   209  ILE209      0.0022
    117  CG2      -19.6240   -1.9610   -1.0850 C.3   209  ILE209      0.0022
    118  CD1      -20.8360   -2.1560   -3.8230 C.3   209  ILE209      0.0001
    119  N        -14.9740   -2.3890   -6.0930 N.3   255  SER255     -0.1217
    120  CA       -15.8690   -1.3840   -5.5330 C.3   255  SER255      0.1889
    121  C        -15.3470    0.0120   -5.7830 C.2   255  SER255      0.2288
    122  O        -16.1130    0.9800   -5.7890 O.2   255  SER255     -0.2866
    123  CB       -16.0690   -1.6060   -4.0320 C.3   255  SER255      0.2089
    124  OG       -14.8620   -1.4150   -3.3250 O.3   255  SER255     -0.2183
    125  N        -11.5340    2.3320   -2.1060 N.3   280  CYS280     -0.1221
    126  CA       -11.4700    1.4450   -0.9420 C.3   280  CYS280      0.1808
    127  C        -10.2190    0.6670   -0.6380 C.2   280  CYS280      0.2601
    128  O         -9.8450    0.5240    0.5270 O.2   280  CYS280     -0.2717
    129  CB       -12.6700    0.4690   -0.9800 C.3   280  CYS280      0.0970
    130  SG       -14.1850    1.3410   -1.3650 S.3   280  CYS280     -0.0800
    131  N         -9.5750    0.1470   -1.6590 N.am  281  ASP281     -0.1973
    132  CA        -8.3820   -0.6320   -1.4140 C.3   281  ASP281      0.1709
    133  C         -7.5230   -0.7170   -2.6770 C.2   281  ASP281      0.2293
    134  O         -7.8630   -0.1140   -3.6880 O.2   281  ASP281     -0.2864
    135  CB        -8.7990   -2.0330   -0.8970 C.3   281  ASP281      0.1436
    136  CG        -9.7300   -2.7990   -1.8580 C.2   281  ASP281      0.3671
    137  OD1      -10.1460   -3.9310   -1.5070 O.co2 281  ASP281     -0.2456
    138  OD2      -10.0470   -2.3110   -2.9550 O.co2 281  ASP281     -0.2456
    139  N         -7.0070   -8.6890   -5.5810 N.3   286  TYR286     -0.1241
    140  CA        -7.9950   -9.0620   -6.5870 C.3   286  TYR286      0.1605
    141  C         -7.3510   -9.7750   -7.7560 C.2   286  TYR286      0.2264
    142  O         -8.0480  -10.3620   -8.5800 O.2   286  TYR286     -0.2867
    143  CB        -8.7210   -7.8490   -7.1240 C.3   286  TYR286      0.0534
    144  CG        -9.5110   -7.1390   -6.0740 C.ar  286  TYR286     -0.0201
    145  CD1      -10.8850   -7.3280   -5.9640 C.ar  286  TYR286     -0.0009
    146  CD2       -8.8900   -6.2730   -5.1730 C.ar  286  TYR286     -0.0009
    147  CE1      -11.6340   -6.6690   -4.9810 C.ar  286  TYR286      0.0417
    148  CE2       -9.6370   -5.6040   -4.1790 C.ar  286  TYR286      0.0417
    149  CZ       -10.9970   -5.8070   -4.0930 C.ar  286  TYR286      0.1957
    150  OH       -11.7180   -5.1430   -3.1340 O.3   286  TYR286     -0.2866
@<TRIPOS>BOND
     1   142   141    2
     2   141   140    1
     3   143   140    1
     4   143   144    1
     5   140   139    1
     6   119   120    1
     7   144   145   ar
     8   144   146   ar
     9   145   147   ar
    10   106   105    1
    11   106   100    1
    12   122   121    2
    13   121   120    1
    14   120   123    1
    15   105   104    1
    16   146   148   ar
    17   147   149   ar
    18   100   101    1
    19    54    53    1
    20   148   149   ar
    21   149   150    1
    22   123   124    1
    23   104   101    1
    24   118   116    1
    25   134   133    2
    26   101   102    1
    27   138   136   ar
    28   116   115    1
    29    53    50    1
    30   103   102    2
    31   133   132    1
    32   102   107   am
    33    43    44    1
    34    50    49    1
    35    50    51    1
    36    49    45   am
    37   125   126    1
    38    45    46    2
    39    45    44    1
    40   136   137   ar
    41   136   135    1
    42    44    47    1
    43   131   132    1
    44   131   127   am
    45   115   117    1
    46   115   112    1
    47   132   135    1
    48   130   129    1
    49   114   113    2
    50   107   108    1
    51   129   126    1
    52   113   112    1
    53   126   127    1
    54   111   112    1
    55   111   109   am
    56    51    55   am
    57    51    52    2
    58    55    56    1
    59   127   128    2
    60   108   109    1
    61    62    61    1
    62    47    48    1
    63   109   110    2
    64    58    57    2
    65    56    59    1
    66    56    57    1
    67    60    61    1
    68    60    59    1
    69    99    97    1
    70    57    63   am
    71    24    22   am
    72    23    22    2
    73    63    64    1
    74    97    96    1
    75    22    21    1
    76    64    65    1
    77    96    98    1
    78    96    93    1
    79     6     5    1
    80     1     2    1
    81     5     2    1
    82     5     7    1
    83    91    89    1
    84    21    18    1
    85    93    92    1
    86    93    94    1
    87    65    66    2
    88    65    67   am
    89    17    18    1
    90     2     3    1
    91    89    90    1
    92    89    86    1
    93    16    15    1
    94    92    87   am
    95    18    19    1
    96    80    78    1
    97    67    68    1
    98    95    94    2
    99    87    88    2
   100    87    86    1
   101    75    78    1
   102    75    74    1
   103    75    76    1
   104    78    79    1
   105    74    69   am
   106     3     8   am
   107     3     4    2
   108    86    85    1
   109     8     9    1
   110    15    14    1
   111    13    14    1
   112    13    12    1
   113    19    20    2
   114    85    83   am
   115    68    69    1
   116    68    71    1
   117    69    70    2
   118    76    77    2
   119    76    81   am
   120    12     9    1
   121     9    10    1
   122    81    82    1
   123    40    42   ar
   124    40    38   ar
   125    42    41   ar
   126    72    71    1
   127    83    84    2
   128    83    82    1
   129    73    71    1
   130    38    37    1
   131    38    39   ar
   132    41    39   ar
   133    10    11    2
   134    37    34    1
   135    36    35    2
   136    34    35    1
   137    34    33    1
   138    31    30    2
   139    32    30   am
   140    30    29    1
   141    28    27    2
   142    27    26    1
   143    29    26    1
   144    26    25    1
