@<TRIPOS>MOLECULE
tmp/2jc5A00.pdb
 87 84 0 0 0
SMALL
GASTEIGER

@<TRIPOS>ATOM
      1  N        -23.8360   -6.6130    7.2060 N.3   112  SER112     -0.1202
      2  CA       -24.5470   -7.0170    8.4080 C.3   112  SER112      0.2020
      3  C        -25.4560   -8.1920    8.0770 C.2   112  SER112      0.2619
      4  O        -25.9220   -8.3350    6.9470 O.2   112  SER112     -0.2717
      5  CB       -25.3560   -5.8650    8.9740 C.3   112  SER112      0.2103
      6  OG       -26.1960   -5.3300    7.9840 O.3   112  SER112     -0.2182
      7  N        -25.6990   -9.0420    9.0620 N.am  113  GLY113     -0.1942
      8  CA       -26.5190  -10.2320    8.8700 C.3   113  GLY113      0.2014
      9  C        -27.8160  -10.2700    9.6380 C.2   113  GLY113      0.2639
     10  O        -28.5920  -11.1830    9.4340 O.2   113  GLY113     -0.2714
     11  N        -28.0880   -9.2880   10.4980 N.am  114  SER114     -0.1949
     12  CA       -29.2430   -9.3990   11.4010 C.3   114  SER114      0.1924
     13  C        -30.5900   -9.2360   10.7130 C.2   114  SER114      0.2314
     14  O        -31.6290   -9.6100   11.2830 O.2   114  SER114     -0.2863
     15  CB       -29.1160   -8.4300   12.5790 C.3   114  SER114      0.2116
     16  OG       -29.1770   -7.1010   12.1580 O.3   114  SER114     -0.2180
     17  N        -23.0160  -12.2740    4.3380 N.3   123  LYS123     -0.1245
     18  CA       -21.9810  -11.9220    5.2740 C.3   123  LYS123      0.1561
     19  C        -20.9520  -13.0370    5.3570 C.2   123  LYS123      0.2260
     20  O        -19.7580  -12.7820    5.2630 O.2   123  LYS123     -0.2867
     21  CB       -22.5880  -11.5990    6.6410 C.3   123  LYS123      0.0271
     22  CG       -21.6020  -11.1840    7.7170 C.3   123  LYS123      0.0035
     23  CD       -22.3480  -10.8210    8.9880 C.3   123  LYS123      0.0206
     24  CE       -21.4570  -10.2110   10.0250 C.3   123  LYS123      0.1093
     25  NZ       -22.1330  -10.0130   11.3580 N.3   123  LYS123     -0.1314
     26  N        -18.7420   -5.4640   11.8420 N.3   151  ASN151     -0.1240
     27  CA       -20.0370   -6.0720   12.1870 C.3   151  ASN151      0.1653
     28  C        -19.8970   -7.3750   12.9730 C.2   151  ASN151      0.2266
     29  O        -20.8140   -8.1980   13.0080 O.2   151  ASN151     -0.2867
     30  CB       -20.9070   -6.2390   10.9240 C.3   151  ASN151      0.1155
     31  CG       -21.8160   -5.0550   10.6600 C.2   151  ASN151      0.2627
     32  OD1      -21.9400   -4.5850    9.5180 O.2   151  ASN151     -0.2716
     33  ND2      -22.4620   -4.5790   11.6900 N.am  151  ASN151     -0.0877
     34  N        -27.2220  -14.1820   17.7660 N.3   168  ASN168     -0.1225
     35  CA       -27.5160  -13.0230   16.9240 C.3   168  ASN168      0.1785
     36  C        -26.3160  -12.6010   16.1070 C.2   168  ASN168      0.2598
     37  O        -25.1690  -12.6640   16.5810 O.2   168  ASN168     -0.2718
     38  CB       -28.0110  -11.8590   17.7710 C.3   168  ASN168      0.1169
     39  CG       -29.2890  -12.1760   18.4870 C.2   168  ASN168      0.2627
     40  OD1      -30.1000  -12.9610   17.9960 O.2   168  ASN168     -0.2716
     41  ND2      -29.4820  -11.5800   19.6570 N.am  168  ASN168     -0.0877
     42  N        -26.5880  -12.1730   14.8780 N.am  169  SER169     -0.1938
     43  CA       -25.5360  -11.7370   13.9670 C.3   169  SER169      0.2055
     44  C        -24.7180  -10.6400   14.6280 C.2   169  SER169      0.2643
     45  O        -25.2700   -9.7050   15.2130 O.2   169  SER169     -0.2714
     46  CB       -26.1160  -11.2170   12.6510 C.3   169  SER169      0.2130
     47  OG       -25.0980  -10.9990   11.6840 O.3   169  SER169     -0.2179
     48  N        -23.4040  -10.7800   14.5380 N.am  170  GLY170     -0.1954
     49  CA       -22.4760   -9.9480   15.2610 C.3   170  GLY170      0.1869
     50  C        -21.7770  -10.6420   16.3930 C.2   170  GLY170      0.2309
     51  O        -20.7080  -10.2130   16.7860 O.2   170  GLY170     -0.2863
     52  N        -20.5990    1.0370   18.9360 N.3   204  TRP204     -0.1241
     53  CA       -21.9470    1.0740   18.3680 C.3   204  TRP204      0.1605
     54  C        -23.0070    0.8150   19.4180 C.2   204  TRP204      0.2264
     55  O        -22.8290   -0.0350   20.2920 O.2   204  TRP204     -0.2867
     56  CB       -22.0810    0.0160   17.2640 C.3   204  TRP204      0.0550
     57  CG       -23.4530   -0.0220   16.6580 C.ar  204  TRP204      0.0003
     58  CD1      -23.9800    0.8440   15.7520 C.ar  204  TRP204      0.0946
     59  CD2      -24.4620   -0.9880   16.9250 C.ar  204  TRP204      0.0152
     60  NE1      -25.2680    0.4850   15.4450 N.ar  204  TRP204     -0.2442
     61  CE2      -25.5880   -0.6480   16.1440 C.ar  204  TRP204      0.0810
     62  CE3      -24.5260   -2.1110   17.7480 C.ar  204  TRP204      0.0012
     63  CZ2      -26.7700   -1.3780   16.1730 C.ar  204  TRP204      0.0191
     64  CZ3      -25.7060   -2.8310   17.7800 C.ar  204  TRP204      0.0001
     65  CH2      -26.8160   -2.4570   16.9910 C.ar  204  TRP204      0.0015
     66  N        -21.6530   -2.3250   21.5530 N.3   218  TRP218     -0.1241
     67  CA       -20.8590   -3.3600   20.9440 C.3   218  TRP218      0.1605
     68  C        -19.6170   -2.7210   20.3550 C.2   218  TRP218      0.2264
     69  O        -19.7010   -1.6330   19.7820 O.2   218  TRP218     -0.2867
     70  CB       -21.5880   -4.0100   19.7630 C.3   218  TRP218      0.0550
     71  CG       -22.9080   -4.6680   20.0080 C.ar  218  TRP218      0.0003
     72  CD1      -24.0210   -4.1360   20.6070 C.ar  218  TRP218      0.0946
     73  CD2      -23.2890   -5.9620   19.5310 C.ar  218  TRP218      0.0152
     74  NE1      -25.0470   -5.0510   20.5820 N.ar  218  TRP218     -0.2442
     75  CE2      -24.6300   -6.1720   19.9150 C.ar  218  TRP218      0.0810
     76  CE3      -22.6130   -6.9780   18.8330 C.ar  218  TRP218      0.0012
     77  CZ2      -25.3080   -7.3510   19.6240 C.ar  218  TRP218      0.0191
     78  CZ3      -23.2930   -8.1310   18.5240 C.ar  218  TRP218      0.0001
     79  CH2      -24.6220   -8.3200   18.9310 C.ar  218  TRP218      0.0015
     80  N        -17.7250   -3.1370   17.3480 N.3   220  ILE220     -0.1245
     81  CA       -17.7580   -3.7520   16.0200 C.3   220  ILE220      0.1561
     82  C        -16.9180   -2.9970   14.9820 C.2   220  ILE220      0.2260
     83  O        -16.8090   -3.4550   13.8450 O.2   220  ILE220     -0.2867
     84  CB       -19.2030   -3.9770   15.5270 C.3   220  ILE220      0.0252
     85  CG1      -19.9850   -2.6600   15.5010 C.3   220  ILE220      0.0019
     86  CG2      -19.8950   -5.0380   16.3870 C.3   220  ILE220      0.0019
     87  CD1      -21.3800   -2.7740   14.8450 C.3   220  ILE220      0.0001
@<TRIPOS>BOND
     1    17    18    1
     2    20    19    2
     3    18    19    1
     4    18    21    1
     5    21    22    1
     6     4     3    2
     7     1     2    1
     8    22    23    1
     9     6     5    1
    10     3     2    1
    11     3     7   am
    12     2     5    1
    13     8     7    1
    14     8     9    1
    15    23    24    1
    16    10     9    2
    17    32    31    2
    18     9    11   am
    19    24    25    1
    20    11    12    1
    21    31    30    1
    22    31    33   am
    23    13    14    2
    24    13    12    1
    25    30    27    1
    26    12    15    1
    27    47    46    1
    28    26    27    1
    29    16    15    1
    30    27    28    1
    31    46    43    1
    32    28    29    2
    33    83    82    2
    34    43    44    1
    35    43    42    1
    36    48    44   am
    37    48    49    1
    38    44    45    2
    39    87    85    1
    40    42    36   am
    41    82    81    1
    42    49    50    1
    43    60    58   ar
    44    60    61   ar
    45    85    84    1
    46    84    81    1
    47    84    86    1
    48    58    57   ar
    49    81    80    1
    50    36    37    2
    51    36    35    1
    52    61    63   ar
    53    61    59   ar
    54    63    65   ar
    55    50    51    2
    56    57    59   ar
    57    57    56    1
    58    35    34    1
    59    35    38    1
    60    59    62   ar
    61    65    64   ar
    62    56    53    1
    63    62    64   ar
    64    38    39    1
    65    40    39    2
    66    53    52    1
    67    53    54    1
    68    39    41   am
    69    78    76   ar
    70    78    79   ar
    71    76    73   ar
    72    79    77   ar
    73    54    55    2
    74    73    75   ar
    75    73    71   ar
    76    77    75   ar
    77    70    71    1
    78    70    67    1
    79    69    68    2
    80    75    74   ar
    81    71    72   ar
    82    68    67    1
    83    74    72   ar
    84    67    66    1
