@<TRIPOS>MOLECULE
tmp/2jc6B00.pdb
 121 114 0 0 0
SMALL
GASTEIGER

@<TRIPOS>ATOM
      1  N         13.4370  -48.0170  -17.7270 N.3    19  LEU19      -0.1231
      2  CA        12.9500  -46.6530  -17.6690 C.3    19  LEU19       0.1693
      3  C         12.8020  -46.1650  -16.2080 C.2    19  LEU19       0.2592
      4  O         12.9650  -44.9800  -15.9160 O.2    19  LEU19      -0.2718
      5  CB        11.6270  -46.5560  -18.4360 C.3    19  LEU19       0.0284
      6  CG        11.7330  -46.8180  -19.9470 C.3    19  LEU19       0.0019
      7  CD1       10.3100  -46.8090  -20.5730 C.3    19  LEU19       0.0001
      8  CD2       12.6920  -45.8380  -20.7000 C.3    19  LEU19       0.0001
      9  N         12.4960  -47.0980  -15.3060 N.am   20  GLY20      -0.1957
     10  CA        12.3500  -46.8010  -13.8800 C.3    20  GLY20       0.1869
     11  C         12.1210  -48.0390  -12.9960 C.2    20  GLY20       0.2309
     12  O         11.6420  -49.0800  -13.4570 O.2    20  GLY20      -0.2863
     13  N          9.9120  -50.8600  -14.7960 N.3    27  VAL27      -0.1245
     14  CA         9.4700  -50.5720  -16.1540 C.3    27  VAL27       0.1561
     15  C         10.6670  -50.5030  -17.1010 C.2    27  VAL27       0.2260
     16  O         11.6250  -49.7820  -16.8540 O.2    27  VAL27      -0.2867
     17  CB         8.7000  -49.2640  -16.2270 C.3    27  VAL27       0.0252
     18  CG1        8.2720  -49.0130  -17.6500 C.3    27  VAL27       0.0019
     19  CG2        7.4850  -49.2830  -15.2460 C.3    27  VAL27       0.0019
     20  N         11.9500  -50.3770  -21.3160 N.3    29  LEU29      -0.1245
     21  CA        11.6380  -50.1350  -22.7500 C.3    29  LEU29       0.1561
     22  C         11.8830  -51.4400  -23.5380 C.2    29  LEU29       0.2260
     23  O         12.9020  -52.1100  -23.3550 O.2    29  LEU29      -0.2867
     24  CB        12.4710  -48.9630  -23.3010 C.3    29  LEU29       0.0270
     25  CG        12.3480  -48.5320  -24.7640 C.3    29  LEU29       0.0019
     26  CD1       11.0290  -47.8480  -25.0320 C.3    29  LEU29       0.0001
     27  CD2       13.5450  -47.6340  -25.1460 C.3    29  LEU29       0.0001
     28  N          6.3920  -49.9040  -23.3020 N.3    40  ALA40      -0.1245
     29  CA         6.8800  -49.8340  -21.9230 C.3    40  ALA40       0.1562
     30  C          6.3070  -51.0420  -21.1480 C.2    40  ALA40       0.2260
     31  O          5.1030  -51.1160  -20.9250 O.2    40  ALA40      -0.2867
     32  CB         6.4380  -48.5250  -21.2860 C.3    40  ALA40       0.0290
     33  N         -3.3470  -44.2680  -21.5510 N.3    66  VAL66      -0.1245
     34  CA        -2.2940  -45.2250  -21.9140 C.3    66  VAL66       0.1561
     35  C         -2.8720  -46.6450  -21.9530 C.2    66  VAL66       0.2260
     36  O         -3.4440  -47.1000  -20.9830 O.2    66  VAL66      -0.2867
     37  CB        -1.1300  -45.1780  -20.9120 C.3    66  VAL66       0.0252
     38  CG1       -0.1180  -46.2930  -21.2020 C.3    66  VAL66       0.0019
     39  CG2       -0.4740  -43.8080  -20.9260 C.3    66  VAL66       0.0019
     40  N          2.6730  -52.0920  -22.0660 N.3    82  MET82      -0.1230
     41  CA         1.9480  -50.8180  -22.1350 C.3    82  MET82       0.1702
     42  C          2.3120  -49.9850  -23.3590 C.2    82  MET82       0.2592
     43  O          3.4230  -50.0720  -23.9040 O.2    82  MET82      -0.2718
     44  CB         2.2170  -50.0000  -20.8570 C.3    82  MET82       0.0401
     45  CG         1.8750  -50.7490  -19.5400 C.3    82  MET82       0.0596
     46  SD         2.0860  -49.7510  -18.0330 S.3    82  MET82      -0.1393
     47  CE         3.8700  -49.7050  -17.7940 C.3    82  MET82       0.0692
     48  N          1.3620  -49.1710  -23.7950 N.am   83  GLN83      -0.1966
     49  CA         1.5940  -48.2120  -24.8520 C.3    83  GLN83       0.1733
     50  C          2.6760  -47.2550  -24.3770 C.2    83  GLN83       0.2616
     51  O          2.6150  -46.7640  -23.2480 O.2    83  GLN83      -0.2715
     52  CB         0.3080  -47.4390  -25.0940 C.3    83  GLN83       0.0408
     53  CG         0.3030  -46.4640  -26.2720 C.3    83  GLN83       0.0908
     54  CD        -1.0510  -45.7900  -26.3820 C.2    83  GLN83       0.2608
     55  OE1       -1.9090  -45.9820  -25.5150 O.2    83  GLN83      -0.2717
     56  NE2       -1.2560  -45.0060  -27.4370 N.am   83  GLN83      -0.0878
     57  N          3.6790  -47.0430  -25.2200 N.am   84  LEU84      -0.1963
     58  CA         4.7300  -46.0820  -24.9870 C.3    84  LEU84       0.1728
     59  C          4.2540  -44.6710  -25.3270 C.2    84  LEU84       0.2616
     60  O          3.7210  -44.4400  -26.4040 O.2    84  LEU84      -0.2715
     61  CB         5.9660  -46.4250  -25.8400 C.3    84  LEU84       0.0311
     62  CG         7.2150  -45.5420  -25.5810 C.3    84  LEU84       0.0022
     63  CD1        7.8460  -45.9070  -24.2930 C.3    84  LEU84       0.0001
     64  CD2        8.2090  -45.6870  -26.6830 C.3    84  LEU84       0.0001
     65  N          4.4360  -43.7430  -24.3930 N.am   85  VAL85      -0.1963
     66  CA         4.1940  -42.3280  -24.6030 C.3    85  VAL85       0.1727
     67  C          5.5340  -41.6780  -24.2970 C.2    85  VAL85       0.2616
     68  O          6.2460  -42.1380  -23.4080 O.2    85  VAL85      -0.2715
     69  CB         3.0230  -41.7910  -23.7170 C.3    85  VAL85       0.0290
     70  CG1        1.7360  -42.5320  -24.0430 C.3    85  VAL85       0.0023
     71  CG2        3.3210  -41.9350  -22.2420 C.3    85  VAL85       0.0023
     72  N          5.9050  -40.6510  -25.0560 N.am   86  SER86      -0.1950
     73  CA         7.2490  -40.0730  -24.9730 C.3    86  SER86       0.1924
     74  C          7.2830  -38.5460  -24.9350 C.2    86  SER86       0.2314
     75  O          8.2960  -37.9560  -25.2450 O.2    86  SER86      -0.2863
     76  CB         8.0740  -40.5810  -26.1680 C.3    86  SER86       0.2116
     77  OG         7.4180  -40.2650  -27.3960 O.3    86  SER86      -0.2180
     78  N          0.6430  -37.4410  -18.8520 N.3   135  LEU135     -0.1245
     79  CA         1.8220  -37.4030  -19.7020 C.3   135  LEU135      0.1561
     80  C          1.3880  -37.1100  -21.1280 C.2   135  LEU135      0.2260
     81  O          0.2900  -37.4700  -21.5600 O.2   135  LEU135     -0.2867
     82  CB         2.5480  -38.7520  -19.6690 C.3   135  LEU135      0.0270
     83  CG         3.0190  -39.3630  -18.3410 C.3   135  LEU135      0.0019
     84  CD1        3.6580  -40.7530  -18.6240 C.3   135  LEU135      0.0001
     85  CD2        3.9990  -38.4380  -17.5890 C.3   135  LEU135      0.0001
     86  N         -1.9950  -42.0500  -17.2860 N.3   148  SER148     -0.1217
     87  CA        -1.0820  -43.1840  -17.1340 C.3   148  SER148      0.1889
     88  C         -1.2350  -43.8990  -15.7950 C.2   148  SER148      0.2288
     89  O         -1.4750  -43.2690  -14.7630 O.2   148  SER148     -0.2866
     90  CB         0.3420  -42.6990  -17.2630 C.3   148  SER148      0.2089
     91  OG         0.6330  -41.7750  -16.2360 O.3   148  SER148     -0.2183
     92  N          8.4130  -39.9210  -11.2840 N.3   270  TRP270     -0.1241
     93  CA         8.9620  -40.5590  -12.4830 C.3   270  TRP270      0.1605
     94  C         10.4880  -40.4180  -12.4760 C.2   270  TRP270      0.2264
     95  O         11.2040  -41.3700  -12.7520 O.2   270  TRP270     -0.2867
     96  CB         8.3800  -39.9480  -13.7800 C.3   270  TRP270      0.0550
     97  CG         6.9160  -39.9690  -13.8410 C.ar  270  TRP270      0.0003
     98  CD1        6.0540  -39.0110  -13.3480 C.ar  270  TRP270      0.0946
     99  CD2        6.0950  -40.9950  -14.3930 C.ar  270  TRP270      0.0152
    100  NE1        4.7560  -39.3880  -13.5740 N.ar  270  TRP270     -0.2442
    101  CE2        4.7450  -40.5960  -14.2130 C.ar  270  TRP270      0.0810
    102  CE3        6.3580  -42.2110  -15.0270 C.ar  270  TRP270      0.0012
    103  CZ2        3.6760  -41.3680  -14.6420 C.ar  270  TRP270      0.0191
    104  CZ3        5.2960  -42.9750  -15.4500 C.ar  270  TRP270      0.0001
    105  CH2        3.9690  -42.5480  -15.2610 C.ar  270  TRP270      0.0015
    106  N         11.8430  -42.7450   -9.7460 N.3   273  ALA273     -0.1231
    107  CA        11.8440  -44.1530  -10.2180 C.3   273  ALA273      0.1694
    108  C         13.0070  -44.3500  -11.1730 C.2   273  ALA273      0.2592
    109  O         13.6790  -45.3570  -11.0990 O.2   273  ALA273     -0.2718
    110  CB        10.5020  -44.5100  -10.9100 C.3   273  ALA273      0.0304
    111  N         13.2530  -43.3610  -12.0410 N.am  274  PHE274     -0.1976
    112  CA        14.3910  -43.3770  -12.9550 C.3   274  PHE274      0.1639
    113  C         15.6700  -43.4420  -12.1590 C.2   274  PHE274      0.2290
    114  O         16.5440  -44.2350  -12.4820 O.2   274  PHE274     -0.2864
    115  CB        14.4110  -42.1580  -13.9170 C.3   274  PHE274      0.0560
    116  CG        15.6850  -42.0510  -14.7320 C.ar  274  PHE274     -0.0200
    117  CD1       15.9790  -42.9860  -15.7260 C.ar  274  PHE274     -0.0042
    118  CD2       16.6120  -41.0310  -14.4830 C.ar  274  PHE274     -0.0042
    119  CE1       17.1760  -42.9070  -16.4610 C.ar  274  PHE274     -0.0003
    120  CE2       17.8050  -40.9550  -15.2020 C.ar  274  PHE274     -0.0003
    121  CZ        18.0820  -41.8900  -16.1950 C.ar  274  PHE274     -0.0000
@<TRIPOS>BOND
     1    56    54   am
     2    77    76    1
     3    64    62    1
     4    60    59    2
     5    54    53    1
     6    54    55    2
     7    53    52    1
     8    76    73    1
     9    61    62    1
    10    61    58    1
    11    62    63    1
    12    59    58    1
    13    59    65   am
    14    75    74    2
    15    57    58    1
    16    57    50   am
    17    27    25    1
    18    52    49    1
    19    72    73    1
    20    72    67   am
    21    26    25    1
    22    73    74    1
    23    49    50    1
    24    49    48    1
    25    25    24    1
    26    66    65    1
    27    66    67    1
    28    66    69    1
    29    50    51    2
    30    67    68    2
    31    70    69    1
    32    43    42    2
    33    48    42   am
    34    69    71    1
    35    22    23    2
    36    22    21    1
    37    42    41    1
    38    28    29    1
    39    24    21    1
    40    21    20    1
    41    41    40    1
    42    41    44    1
    43    35    34    1
    44    35    36    2
    45    29    32    1
    46    29    30    1
    47    34    33    1
    48    34    37    1
    49    81    80    2
    50    38    37    1
    51    30    31    2
    52    80    79    1
    53    39    37    1
    54    44    45    1
    55     8     6    1
    56     7     6    1
    57     6     5    1
    58    79    82    1
    59    79    78    1
    60    82    83    1
    61    45    46    1
    62    84    83    1
    63     5     2    1
    64    83    85    1
    65    46    47    1
    66     1     2    1
    67     2     3    1
    68    18    17    1
    69    86    87    1
    70    90    87    1
    71    90    91    1
    72    87    88    1
    73    15    16    2
    74    15    14    1
    75   119   121   ar
    76   119   117   ar
    77    17    14    1
    78    17    19    1
    79     3     4    2
    80     3     9   am
    81   121   120   ar
    82    14    13    1
    83    88    89    2
    84   117   116   ar
    85   104   105   ar
    86   104   102   ar
    87     9    10    1
    88   105   103   ar
    89   120   118   ar
    90   102    99   ar
    91   116   118   ar
    92   116   115    1
    93   103   101   ar
    94    99   101   ar
    95    99    97   ar
    96   101   100   ar
    97   115   112    1
    98    10    11    1
    99    97    96    1
   100    97    98   ar
   101    96    93    1
   102   100    98   ar
   103    12    11    2
   104   112   113    1
   105   112   111    1
   106    95    94    2
   107    93    94    1
   108    93    92    1
   109   114   113    2
   110   111   108   am
   111   108   109    2
   112   108   107    1
   113   110   107    1
   114   107   106    1
