@<TRIPOS>MOLECULE
tmp/2jc9A01.pdb
 105 101 0 0 0
SMALL
GASTEIGER

@<TRIPOS>ATOM
      1  N        -16.5300   28.1850   57.6120 N.3   117  LEU117     -0.1231
      2  CA       -16.7320   29.4790   56.9650 C.3   117  LEU117      0.1693
      3  C        -17.7030   29.3880   55.7900 C.2   117  LEU117      0.2592
      4  O        -18.5180   30.2940   55.5710 O.2   117  LEU117     -0.2718
      5  CB       -15.3960   30.0280   56.4830 C.3   117  LEU117      0.0284
      6  CG       -14.3100   30.1910   57.5720 C.3   117  LEU117      0.0019
      7  CD1      -13.0000   30.7180   56.9920 C.3   117  LEU117      0.0001
      8  CD2      -14.7920   31.0400   58.7460 C.3   117  LEU117      0.0001
      9  N        -17.5920   28.2970   55.0280 N.am  118  VAL118     -0.1966
     10  CA       -18.4550   28.0210   53.8800 C.3   118  VAL118      0.1727
     11  C        -18.6820   26.5270   53.8220 C.2   118  VAL118      0.2616
     12  O        -17.7570   25.7610   54.0720 O.2   118  VAL118     -0.2715
     13  CB       -17.7940   28.4690   52.5280 C.3   118  VAL118      0.0290
     14  CG1      -18.7430   28.2500   51.3340 C.3   118  VAL118      0.0023
     15  CG2      -17.3550   29.9140   52.5900 C.3   118  VAL118      0.0023
     16  N        -19.8790   26.1300   53.4000 N.am  119  CYS119     -0.1968
     17  CA       -20.2400   24.7280   53.2240 C.3   119  CYS119      0.1712
     18  C        -21.0560   24.6170   51.9620 C.2   119  CYS119      0.2296
     19  O        -22.1190   25.2410   51.8880 O.2   119  CYS119     -0.2864
     20  CB       -21.0890   24.2570   54.3980 C.3   119  CYS119      0.0983
     21  SG       -21.6400   22.5280   54.2710 S.3   119  CYS119     -0.0798
     22  N        -25.0030   26.1440   48.3260 N.3   125  PHE125     -0.1227
     23  CA       -24.2740   26.7590   49.4320 C.3   125  PHE125      0.1736
     24  C        -25.2190   26.8150   50.6180 C.2   125  PHE125      0.2595
     25  O        -26.2960   27.4110   50.5350 O.2   125  PHE125     -0.2718
     26  CB       -23.7200   28.1210   49.0090 C.3   125  PHE125      0.0547
     27  CG       -22.5260   28.0100   48.0990 C.ar  125  PHE125     -0.0202
     28  CD1      -22.6690   27.6650   46.7480 C.ar  125  PHE125     -0.0042
     29  CD2      -21.2480   28.1920   48.6040 C.ar  125  PHE125     -0.0042
     30  CE1      -21.5550   27.5140   45.9300 C.ar  125  PHE125     -0.0003
     31  CE2      -20.1410   28.0670   47.7970 C.ar  125  PHE125     -0.0003
     32  CZ       -20.2920   27.7330   46.4470 C.ar  125  PHE125     -0.0000
     33  N        -24.8330   26.1430   51.6980 N.am  126  ILE126     -0.1966
     34  CA       -25.6890   25.9030   52.8330 C.3   126  ILE126      0.1727
     35  C        -25.4940   27.0610   53.8310 C.2   126  ILE126      0.2616
     36  O        -24.3690   27.3950   54.1770 O.2   126  ILE126     -0.2715
     37  CB       -25.3380   24.5350   53.5120 C.3   126  ILE126      0.0290
     38  CG1      -25.3160   23.3930   52.4740 C.3   126  ILE126      0.0022
     39  CG2      -26.3140   24.1990   54.6180 C.3   126  ILE126      0.0023
     40  CD1      -26.5790   23.3140   51.6240 C.3   126  ILE126      0.0001
     41  N        -26.5990   27.6580   54.2770 N.am  127  ARG127     -0.1963
     42  CA       -26.5770   28.7390   55.2770 C.3   127  ARG127      0.1729
     43  C        -26.2690   28.1820   56.6750 C.2   127  ARG127      0.2616
     44  O        -26.3910   26.9800   56.9240 O.2   127  ARG127     -0.2715
     45  CB       -27.9410   29.4480   55.3160 C.3   127  ARG127      0.0348
     46  CG       -28.2420   30.4230   54.1420 C.3   127  ARG127      0.0492
     47  CD       -28.1160   31.9460   54.5300 C.3   127  ARG127      0.2205
     48  NE       -28.5610   32.2710   55.9000 N.pl3 127  ARG127     -0.0865
     49  CZ       -27.7730   32.6540   56.9180 C.cat 127  ARG127      0.5346
     50  NH1      -26.4510   32.7970   56.7830 N.pl3 127  ARG127      0.1354
     51  NH2      -28.3240   32.9020   58.1020 N.pl3 127  ARG127      0.1354
     52  N        -25.9060   29.0790   57.5930 N.am  128  GLY128     -0.1955
     53  CA       -25.5180   28.7030   58.9500 C.3   128  GLY128      0.1869
     54  C        -26.4620   27.7530   59.6720 C.2   128  GLY128      0.2309
     55  O        -26.0500   26.6730   60.0980 O.2   128  GLY128     -0.2863
     56  N        -22.9350   40.3540   56.9810 N.3   403  LYS403     -0.1245
     57  CA       -23.0770   39.1460   56.1580 C.3   403  LYS403      0.1561
     58  C        -23.1620   39.4810   54.6750 C.2   403  LYS403      0.2260
     59  O        -22.6180   38.7550   53.8320 O.2   403  LYS403     -0.2867
     60  CB       -24.3120   38.3430   56.5700 C.3   403  LYS403      0.0271
     61  CG       -24.2110   37.7320   57.9540 C.3   403  LYS403      0.0035
     62  CD       -25.3490   36.7560   58.2010 C.3   403  LYS403      0.0206
     63  CE       -25.3290   36.2140   59.6270 C.3   403  LYS403      0.1093
     64  NZ       -25.6420   37.2880   60.6300 N.3   403  LYS403     -0.1314
     65  N        -19.6430   40.7760   53.5490 N.3   406  THR406     -0.1203
     66  CA       -18.7980   39.5630   53.5430 C.3   406  THR406      0.1994
     67  C        -19.0240   38.7550   52.2580 C.2   406  THR406      0.2617
     68  O        -18.0690   38.3860   51.5630 O.2   406  THR406     -0.2717
     69  CB       -19.0810   38.6580   54.7850 C.3   406  THR406      0.1784
     70  OG1      -18.6540   39.3300   55.9850 O.3   406  THR406     -0.2211
     71  CG2      -18.3550   37.2960   54.6830 C.3   406  THR406      0.0376
     72  N        -20.2940   38.5210   51.9300 N.am  407  HIS407     -0.1975
     73  CA       -20.6480   37.7930   50.7100 C.3   407  HIS407      0.1656
     74  C        -20.1790   38.5240   49.4510 C.2   407  HIS407      0.2291
     75  O        -19.5460   37.9240   48.5790 O.2   407  HIS407     -0.2864
     76  CB       -22.1590   37.5400   50.6490 C.3   407  HIS407      0.0771
     77  CG       -22.5840   36.7440   49.4540 C.ar  407  HIS407      0.0820
     78  ND1      -23.0720   37.3340   48.3080 N.ar  407  HIS407     -0.2267
     79  CD2      -22.5610   35.4120   49.2140 C.ar  407  HIS407      0.1154
     80  CE1      -23.3550   36.3940   47.4220 C.ar  407  HIS407      0.1986
     81  NE2      -23.0550   35.2200   47.9480 N.ar  407  HIS407     -0.2212
     82  N        -16.3820   38.3510   49.2050 N.3   410  ASP410     -0.1225
     83  CA       -15.9490   36.9780   48.8710 C.3   410  ASP410      0.1805
     84  C        -16.2330   36.6430   47.4030 C.2   410  ASP410      0.2597
     85  O        -15.4140   36.0270   46.7320 O.2   410  ASP410     -0.2718
     86  CB       -16.6640   35.9700   49.7450 C.3   410  ASP410      0.1424
     87  CG       -16.1590   35.9620   51.1760 C.2   410  ASP410      0.3668
     88  OD1      -15.2580   36.7790   51.5360 O.co2 410  ASP410     -0.2456
     89  OD2      -16.7010   35.1290   51.9320 O.co2 410  ASP410     -0.2456
     90  N        -17.3740   37.1030   46.8880 N.am  411  MET411     -0.1979
     91  CA       -17.7520   36.7800   45.5150 C.3   411  MET411      0.1605
     92  C        -16.8250   37.3740   44.4630 C.2   411  MET411      0.2287
     93  O        -16.7720   36.8720   43.3440 O.2   411  MET411     -0.2864
     94  CB       -19.2070   37.1640   45.2400 C.3   411  MET411      0.0413
     95  CG       -20.2450   36.2740   45.9310 C.3   411  MET411      0.0598
     96  SD       -20.0290   34.4870   45.6440 S.3   411  MET411     -0.1393
     97  CE       -19.0270   34.0080   47.0780 C.3   411  MET411      0.0692
     98  N        -16.5930   31.6330   43.6100 N.3   415  MET415     -0.1245
     99  CA       -17.7230   31.1050   44.3790 C.3   415  MET415      0.1570
    100  C        -17.3050   30.6140   45.7860 C.2   415  MET415      0.2261
    101  O        -18.1010   30.6060   46.7330 O.2   415  MET415     -0.2867
    102  CB       -18.3800   29.9820   43.6110 C.3   415  MET415      0.0387
    103  CG       -19.0380   30.5010   42.3280 C.3   415  MET415      0.0595
    104  SD       -20.4910   31.5220   42.7140 S.3   415  MET415     -0.1393
    105  CE       -21.7990   30.3010   42.6250 C.3   415  MET415      0.0692
@<TRIPOS>BOND
     1   103   104    1
     2   103   102    1
     3   105   104    1
     4    93    92    2
     5    98    99    1
     6   102    99    1
     7    99   100    1
     8    92    91    1
     9    94    91    1
    10    94    95    1
    11    91    90    1
    12    96    95    1
    13    96    97    1
    14   100   101    2
    15    30    32   ar
    16    30    28   ar
    17    32    31   ar
    18    85    84    2
    19    28    27   ar
    20    90    84   am
    21    84    83    1
    22    80    81   ar
    23    80    78   ar
    24    31    29   ar
    25    81    79   ar
    26    27    29   ar
    27    27    26    1
    28    78    77   ar
    29    22    23    1
    30    75    74    2
    31    83    82    1
    32    83    86    1
    33    26    23    1
    34    79    77   ar
    35    23    24    1
    36    74    73    1
    37    77    76    1
    38    86    87    1
    39    25    24    2
    40    24    33   am
    41    76    73    1
    42    73    72    1
    43    87    88   ar
    44    87    89   ar
    45    14    13    1
    46    68    67    2
    47    40    38    1
    48    33    34    1
    49    19    18    2
    50    72    67   am
    51    18    17    1
    52    67    66    1
    53    38    37    1
    54    13    15    1
    55    13    10    1
    56    34    37    1
    57    34    35    1
    58    17    16    1
    59    17    20    1
    60    16    11   am
    61    37    39    1
    62    66    65    1
    63    66    69    1
    64    11    10    1
    65    11    12    2
    66    35    36    2
    67    35    41   am
    68    59    58    2
    69    10     9    1
    70    46    47    1
    71    46    45    1
    72    21    20    1
    73    41    42    1
    74    47    48    1
    75    58    57    1
    76    71    69    1
    77    69    70    1
    78     9     3   am
    79    42    45    1
    80    42    43    1
    81     4     3    2
    82     3     2    1
    83    48    49    2
    84    57    60    1
    85    57    56    1
    86     5     2    1
    87     5     6    1
    88    60    61    1
    89    43    44    2
    90    43    52   am
    91    50    49    1
    92    49    51    1
    93     2     1    1
    94     7     6    1
    95     6     8    1
    96    52    53    1
    97    61    62    1
    98    62    63    1
    99    53    54    1
   100    63    64    1
   101    54    55    2
