@<TRIPOS>MOLECULE
tmp/2jc9A00.pdb
 96 89 0 0 0
SMALL
GASTEIGER

@<TRIPOS>ATOM
      1  N        -10.1640   18.5850   62.6800 N.3   142  ARG142     -0.1231
      2  CA        -9.0480   18.4620   61.7600 C.3   142  ARG142      0.1694
      3  C         -8.1970   17.2040   61.9520 C.2   142  ARG142      0.2592
      4  O         -7.6680   16.6880   60.9960 O.2   142  ARG142     -0.2718
      5  CB        -8.1450   19.6850   61.8620 C.3   142  ARG142      0.0321
      6  CG        -8.7920   20.9770   61.3370 C.3   142  ARG142      0.0489
      7  CD        -7.8180   22.1600   61.4020 C.3   142  ARG142      0.2205
      8  NE        -6.5690   21.7540   60.7910 N.pl3 142  ARG142     -0.0865
      9  CZ        -5.3750   22.2280   61.1170 C.cat 142  ARG142      0.5346
     10  NH1       -5.2470   23.1920   62.0300 N.pl3 142  ARG142      0.1354
     11  NH2       -4.3010   21.7510   60.5140 N.pl3 142  ARG142      0.1354
     12  N         -8.0800   16.7030   63.1760 N.am  143  ASP143     -0.1974
     13  CA        -7.3300   15.4620   63.3850 C.3   143  ASP143      0.1709
     14  C         -7.9580   14.2220   62.7090 C.2   143  ASP143      0.2293
     15  O         -7.2800   13.2040   62.5650 O.2   143  ASP143     -0.2864
     16  CB        -7.0830   15.2310   64.8900 C.3   143  ASP143      0.1436
     17  CG        -6.1980   16.3460   65.5130 C.2   143  ASP143      0.3671
     18  OD1       -5.0120   16.4450   65.1060 O.co2 143  ASP143     -0.2456
     19  OD2       -6.6630   17.1220   66.4080 O.co2 143  ASP143     -0.2456
     20  N         -8.3740   12.6370   59.8670 N.3   145  THR145     -0.1218
     21  CA        -7.8580   12.6260   58.5090 C.3   145  THR145      0.1862
     22  C         -8.4270   11.4860   57.6710 C.2   145  THR145      0.2287
     23  O         -8.3270   11.5260   56.4410 O.2   145  THR145     -0.2866
     24  CB        -6.3390   12.5990   58.4880 C.3   145  THR145      0.1770
     25  OG1       -5.8940   11.5080   59.2850 O.3   145  THR145     -0.2211
     26  CG2       -5.7500   13.9060   59.0260 C.3   145  THR145      0.0375
     27  N         -7.9140   17.5370   52.9080 N.3   150  ILE150     -0.1245
     28  CA        -7.5720   18.9460   52.5870 C.3   150  ILE150      0.1561
     29  C         -6.9590   18.9920   51.1840 C.2   150  ILE150      0.2260
     30  O         -5.9710   18.3120   50.8880 O.2   150  ILE150     -0.2867
     31  CB        -6.5710   19.5670   53.5980 C.3   150  ILE150      0.0252
     32  CG1       -7.1570   19.5030   55.0090 C.3   150  ILE150      0.0019
     33  CG2       -6.2840   21.0370   53.2610 C.3   150  ILE150      0.0019
     34  CD1       -6.1730   19.8710   56.1040 C.3   150  ILE150      0.0001
     35  N         -4.8560   20.7430   49.1050 N.3   152  ASN152     -0.1240
     36  CA        -3.8110   21.7400   49.3230 C.3   152  ASN152      0.1653
     37  C         -3.1530   22.3770   48.1340 C.2   152  ASN152      0.2266
     38  O         -2.5890   23.4540   48.3020 O.2   152  ASN152     -0.2867
     39  CB        -2.6260   21.0970   50.0840 C.3   152  ASN152      0.1155
     40  CG        -2.8790   20.8700   51.5480 C.2   152  ASN152      0.2627
     41  OD1       -3.0790   21.8050   52.3200 O.2   152  ASN152     -0.2716
     42  ND2       -2.7750   19.5970   51.9610 N.am  152  ASN152     -0.0877
     43  N          2.0250   23.6390   50.9370 N.3   351  ILE351     -0.1231
     44  CA         2.0420   24.1470   52.2930 C.3   351  ILE351      0.1692
     45  C          2.3360   23.0780   53.3290 C.2   351  ILE351      0.2592
     46  O          2.9780   23.3480   54.3540 O.2   351  ILE351     -0.2718
     47  CB         0.7520   24.9410   52.6260 C.3   351  ILE351      0.0266
     48  CG1        0.8540   25.6460   53.9940 C.3   351  ILE351      0.0019
     49  CG2       -0.4690   24.0630   52.5570 C.3   351  ILE351      0.0020
     50  CD1        2.0580   26.4950   54.1760 C.3   351  ILE351      0.0001
     51  N          1.8530   21.8600   53.0670 N.am  352  PHE352     -0.1976
     52  CA         2.0880   20.7380   53.9680 C.3   352  PHE352      0.1639
     53  C          3.3940   20.0060   53.6750 C.2   352  PHE352      0.2290
     54  O          4.2580   19.9030   54.5510 O.2   352  PHE352     -0.2864
     55  CB         0.8770   19.7920   53.9470 C.3   352  PHE352      0.0560
     56  CG         0.9770   18.6840   54.9560 C.ar  352  PHE352     -0.0200
     57  CD1        0.8370   18.9470   56.2940 C.ar  352  PHE352     -0.0042
     58  CD2        1.2310   17.3990   54.5720 C.ar  352  PHE352     -0.0042
     59  CE1        0.9270   17.9180   57.2360 C.ar  352  PHE352     -0.0003
     60  CE2        1.3100   16.3830   55.5160 C.ar  352  PHE352     -0.0003
     61  CZ         1.1570   16.6610   56.8310 C.ar  352  PHE352     -0.0000
     62  N          5.3910   23.1970   55.7830 N.3   356  LEU356     -0.1231
     63  CA         5.1250   22.7840   57.1670 C.3   356  LEU356      0.1693
     64  C          6.0880   21.6830   57.6180 C.2   356  LEU356      0.2591
     65  O          6.6980   21.7560   58.6880 O.2   356  LEU356     -0.2718
     66  CB         3.6560   22.3760   57.3220 C.3   356  LEU356      0.0284
     67  CG         3.1380   21.9700   58.7100 C.3   356  LEU356      0.0019
     68  CD1        1.5990   22.1430   58.7760 C.3   356  LEU356      0.0001
     69  CD2        3.5770   20.5390   59.0210 C.3   356  LEU356      0.0001
     70  N          6.2580   20.6560   56.7880 N.am  357  LYS357     -0.1980
     71  CA         7.0350   19.4990   57.2300 C.3   357  LYS357      0.1596
     72  C          8.5270   19.7700   57.2530 C.2   357  LYS357      0.2287
     73  O          9.2210   19.2780   58.1310 O.2   357  LYS357     -0.2864
     74  CB         6.6890   18.2500   56.3930 C.3   357  LYS357      0.0298
     75  CG         5.3370   17.6640   56.7460 C.3   357  LYS357      0.0038
     76  CD         5.4580   16.8730   58.0650 C.3   357  LYS357      0.0206
     77  CE         4.1270   16.3880   58.6050 C.3   357  LYS357      0.1093
     78  NZ         4.3190   15.5080   59.8300 N.3   357  LYS357     -0.1314
     79  N          8.8650   21.9660   60.5000 N.3   360  LYS360     -0.1245
     80  CA         8.6390   21.2650   61.8050 C.3   360  LYS360      0.1561
     81  C          9.6180   20.1260   62.0230 C.2   360  LYS360      0.2260
     82  O         10.0500   19.8750   63.1600 O.2   360  LYS360     -0.2867
     83  CB         7.2160   20.7010   61.9160 C.3   360  LYS360      0.0271
     84  CG         6.1580   21.7180   62.0250 C.3   360  LYS360      0.0035
     85  CD         4.8080   21.0510   62.2540 C.3   360  LYS360      0.0206
     86  CE         4.2820   21.2080   63.6270 C.3   360  LYS360      0.1093
     87  NZ         2.8260   20.8500   63.6600 N.3   360  LYS360     -0.1314
     88  N         -1.7540   28.6900   58.1300 N.3   432  GLN432     -0.1245
     89  CA        -0.5700   27.8550   57.9060 C.3   432  GLN432      0.1566
     90  C          0.5400   28.5980   57.1830 C.2   432  GLN432      0.2260
     91  O          1.7020   28.3970   57.4960 O.2   432  GLN432     -0.2867
     92  CB        -0.9190   26.5330   57.1870 C.3   432  GLN432      0.0367
     93  CG        -1.8800   25.7000   58.0130 C.3   432  GLN432      0.0905
     94  CD        -2.0250   24.2870   57.5120 C.2   432  GLN432      0.2608
     95  OE1       -2.2730   24.0630   56.3290 O.2   432  GLN432     -0.2717
     96  NE2       -1.8260   23.3180   58.3990 N.am  432  GLN432     -0.0878
@<TRIPOS>BOND
     1    37    38    2
     2    37    36    1
     3    35    36    1
     4    36    39    1
     5    39    40    1
     6    30    29    2
     7    43    44    1
     8    29    28    1
     9    40    42   am
    10    40    41    2
    11    44    47    1
    12    44    45    1
    13    49    47    1
    14    28    27    1
    15    28    31    1
    16    47    48    1
    17    51    45   am
    18    51    52    1
    19    33    31    1
    20    45    46    2
    21    31    32    1
    22    53    52    1
    23    53    54    2
    24    55    52    1
    25    55    56    1
    26    48    50    1
    27    58    56   ar
    28    58    60   ar
    29    56    57   ar
    30    32    34    1
    31    60    61   ar
    32    62    63    1
    33    57    59   ar
    34    95    94    2
    35    74    75    1
    36    74    71    1
    37    23    22    2
    38    75    76    1
    39    70    71    1
    40    70    64   am
    41    61    59   ar
    42    63    66    1
    43    63    64    1
    44    90    91    2
    45    90    89    1
    46    92    89    1
    47    92    93    1
    48    71    72    1
    49    72    73    2
    50    66    67    1
    51    94    93    1
    52    94    96   am
    53    64    65    2
    54    22    21    1
    55    89    88    1
    56    76    77    1
    57    24    21    1
    58    24    26    1
    59    24    25    1
    60    21    20    1
    61    77    78    1
    62    67    68    1
    63    67    69    1
    64    79    80    1
    65    11     9    1
    66     8     9    2
    67     8     7    1
    68     4     3    2
    69     9    10    1
    70     6     7    1
    71     6     5    1
    72     2     5    1
    73     2     3    1
    74     2     1    1
    75    80    83    1
    76    80    81    1
    77    83    84    1
    78     3    12   am
    79    81    82    2
    80    84    85    1
    81    85    86    1
    82    15    14    2
    83    14    13    1
    84    12    13    1
    85    13    16    1
    86    86    87    1
    87    16    17    1
    88    18    17   ar
    89    17    19   ar
