@<TRIPOS>MOLECULE
tmp/2jcbA00.pdb
 146 141 0 0 0
SMALL
GASTEIGER

@<TRIPOS>ATOM
      1  N         37.2420   22.5680    8.3950 N.3     7  ARG7       -0.1245
      2  CA        36.4290   21.5490    9.0730 C.3     7  ARG7        0.1563
      3  C         34.9360   21.5980    8.7150 C.2     7  ARG7        0.2260
      4  O         34.3160   20.5430    8.5230 O.2     7  ARG7       -0.2867
      5  CB        36.6000   21.6590   10.5890 C.3     7  ARG7        0.0307
      6  CG        38.0540   21.6690   11.0640 C.3     7  ARG7        0.0489
      7  CD        38.7840   20.3880   10.7120 C.3     7  ARG7        0.2205
      8  NE        38.0800   19.2330   11.2550 N.pl3   7  ARG7       -0.0865
      9  CZ        38.3070   17.9630   10.9130 C.cat   7  ARG7        0.5346
     10  NH1       39.2440   17.6340   10.0190 N.pl3   7  ARG7        0.1354
     11  NH2       37.5750   17.0060   11.4760 N.pl3   7  ARG7        0.1354
     12  N         34.4290   20.2000    5.1780 N.3    10  LYS10      -0.1245
     13  CA        34.5000   18.7410    5.2280 C.3    10  LYS10       0.1561
     14  C         33.2020   18.1030    5.7090 C.2    10  LYS10       0.2260
     15  O         32.7460   17.1150    5.1310 O.2    10  LYS10      -0.2867
     16  CB        35.6490   18.3210    6.1360 C.3    10  LYS10       0.0271
     17  CG        36.9610   18.0250    5.4060 C.3    10  LYS10       0.0035
     18  CD        37.9640   17.2950    6.3390 C.3    10  LYS10       0.0206
     19  CE        39.3760   17.3600    5.7720 C.3    10  LYS10       0.1093
     20  NZ        40.2850   16.3650    6.3660 N.3    10  LYS10      -0.1314
     21  N         30.7800   15.9670    3.4350 N.3    14  ARG14      -0.1245
     22  CA        30.5080   14.5930    3.9580 C.3    14  ARG14       0.1563
     23  C         28.9840   14.4110    4.0690 C.2    14  ARG14       0.2260
     24  O         28.4310   13.4710    3.5240 O.2    14  ARG14      -0.2867
     25  CB        31.1770   14.3800    5.3160 C.3    14  ARG14       0.0307
     26  CG        31.4350   12.9060    5.6830 C.3    14  ARG14       0.0489
     27  CD        32.1190   12.8070    7.0820 C.3    14  ARG14       0.2205
     28  NE        33.5760   13.0030    7.0020 N.pl3  14  ARG14      -0.0865
     29  CZ        34.3280   13.8060    7.7460 C.cat  14  ARG14       0.5346
     30  NH1       33.8210   14.5550    8.7440 N.pl3  14  ARG14       0.1354
     31  NH2       35.6380   13.8340    7.5170 N.pl3  14  ARG14       0.1354
     32  N         42.8760    4.7450   17.3200 N.3    88  ARG88      -0.1245
     33  CA        42.5630    5.0270   15.9120 C.3    88  ARG88       0.1563
     34  C         43.4250    4.2120   14.9450 C.2    88  ARG88       0.2260
     35  O         43.7960    4.6710   13.8630 O.2    88  ARG88      -0.2867
     36  CB        42.6190    6.5350   15.6210 C.3    88  ARG88       0.0307
     37  CG        41.2420    7.1270   15.4180 C.3    88  ARG88       0.0489
     38  CD        40.7190    7.6770   16.7170 C.3    88  ARG88       0.2205
     39  NE        39.4040    8.2950   16.5820 N.pl3  88  ARG88      -0.0865
     40  CZ        39.1660    9.4510   15.9600 C.cat  88  ARG88       0.5346
     41  NH1       40.1380   10.1540   15.3730 N.pl3  88  ARG88       0.1354
     42  NH2       37.9310    9.9200   15.9270 N.pl3  88  ARG88       0.1354
     43  N         40.7590   12.6300   -0.7550 N.3   140  ARG140     -0.1231
     44  CA        39.7580   11.7660   -0.1400 C.3   140  ARG140      0.1694
     45  C         39.2080   12.3600    1.1580 C.2   140  ARG140      0.2592
     46  O         39.9550   12.8810    1.9940 O.2   140  ARG140     -0.2718
     47  CB        40.3150   10.3520    0.0740 C.3   140  ARG140      0.0321
     48  CG        39.4280    9.5070    0.9180 C.3   140  ARG140      0.0489
     49  CD        40.0350    8.1120    1.1200 C.3   140  ARG140      0.2205
     50  NE        39.2800    7.4620    2.1580 N.pl3 140  ARG140     -0.0865
     51  CZ        39.4620    7.5970    3.4770 C.cat 140  ARG140      0.5346
     52  NH1       38.6160    6.9620    4.2840 N.pl3 140  ARG140      0.1354
     53  NH2       40.4050    8.3800    3.9880 N.pl3 140  ARG140      0.1354
     54  N         37.8870   12.4120    1.2400 N.am  141  ILE141     -0.1966
     55  CA        37.1840   12.6120    2.5140 C.3   141  ILE141      0.1727
     56  C         36.5430   11.2720    2.9040 C.2   141  ILE141      0.2617
     57  O         35.8450   10.6540    2.0870 O.2   141  ILE141     -0.2715
     58  CB        36.0550   13.6860    2.4040 C.3   141  ILE141      0.0290
     59  CG1       36.6160   15.0790    2.1270 C.3   141  ILE141      0.0022
     60  CG2       35.2830   13.7620    3.7550 C.3   141  ILE141      0.0023
     61  CD1       35.5670   16.0730    1.7260 C.3   141  ILE141      0.0001
     62  N         36.7920   10.8380    4.1410 N.am  142  GLY142     -0.1940
     63  CA        36.1550    9.6290    4.6620 C.3   142  GLY142      0.2014
     64  C         35.0090   10.0290    5.5960 C.2   142  GLY142      0.2639
     65  O         34.3480   11.0590    5.4070 O.2   142  GLY142     -0.2714
     66  N         34.8210    9.2200    6.6390 N.am  143  TYR143     -0.1959
     67  CA        33.6710    9.3430    7.5600 C.3   143  TYR143      0.1771
     68  C         33.9190   10.1490    8.7970 C.2   143  TYR143      0.2620
     69  O         32.9870   10.4380    9.5590 O.2   143  TYR143     -0.2715
     70  CB        33.1600    7.9230    7.9400 C.3   143  TYR143      0.0574
     71  CG        32.4910    7.2970    6.7760 C.ar  143  TYR143     -0.0198
     72  CD1       31.1760    7.6200    6.4400 C.ar  143  TYR143     -0.0009
     73  CD2       33.2020    6.4530    5.9500 C.ar  143  TYR143     -0.0009
     74  CE1       30.5860    7.0620    5.3200 C.ar  143  TYR143      0.0417
     75  CE2       32.6310    5.9030    4.8250 C.ar  143  TYR143      0.0417
     76  CZ        31.3320    6.2120    4.5230 C.ar  143  TYR143      0.1957
     77  OH        30.8110    5.6270    3.3870 O.3   143  TYR143     -0.2866
     78  N         35.1640   10.5790    8.9870 N.am  144  GLY144     -0.1940
     79  CA        35.4990   11.4620   10.0690 C.3   144  GLY144      0.2014
     80  C         36.4460   10.9220   11.1210 C.2   144  GLY144      0.2639
     81  O         36.9340   11.7000   11.9540 O.2   144  GLY144     -0.2714
     82  N         36.6870    9.6080   11.1040 N.am  145  GLY145     -0.1939
     83  CA        37.5840    8.9790   12.0940 C.3   145  GLY145      0.2014
     84  C         39.0810    9.1530   11.8340 C.2   145  GLY145      0.2639
     85  O         39.8900    9.0650   12.7500 O.2   145  GLY145     -0.2714
     86  N         39.4330    9.3580   10.5580 N.am  146  GLY146     -0.1939
     87  CA        40.8140    9.5030   10.1540 C.3   146  GLY146      0.2014
     88  C         41.5730    8.1960   10.2380 C.2   146  GLY146      0.2638
     89  O         42.7840    8.1890   10.3600 O.2   146  GLY146     -0.2714
     90  N         40.8610    7.0840   10.2000 N.am  147  TYR147     -0.1973
     91  CA        41.5270    5.7740   10.2360 C.3   147  TYR147      0.1639
     92  C         42.4790    5.5020    9.0570 C.2   147  TYR147      0.2290
     93  O         43.6260    5.0720    9.2520 O.2   147  TYR147     -0.2864
     94  CB        40.5100    4.6180   10.2800 C.3   147  TYR147      0.0560
     95  CG        39.9020    4.4180   11.6470 C.ar  147  TYR147     -0.0198
     96  CD1       40.5780    3.7000   12.6400 C.ar  147  TYR147     -0.0009
     97  CD2       38.6210    4.9040   11.9150 C.ar  147  TYR147     -0.0009
     98  CE1       40.0000    3.4570   13.8620 C.ar  147  TYR147      0.0417
     99  CE2       38.0390    4.7080   13.1660 C.ar  147  TYR147      0.0417
    100  CZ        38.7330    3.9640   14.1260 C.ar  147  TYR147      0.1957
    101  OH        38.1740    3.7600   15.3570 O.3   147  TYR147     -0.2866
    102  N         43.7080    7.7480    6.9340 N.3   149  ASP149     -0.1225
    103  CA        44.7530    8.7410    6.9190 C.3   149  ASP149      0.1805
    104  C         45.9520    8.2580    7.7600 C.2   149  ASP149      0.2597
    105  O         47.0860    8.4220    7.3390 O.2   149  ASP149     -0.2718
    106  CB        44.2250   10.0800    7.4350 C.3   149  ASP149      0.1424
    107  CG        43.4390   10.8430    6.3740 C.2   149  ASP149      0.3668
    108  OD1       43.5760   10.5440    5.1540 O.co2 149  ASP149     -0.2456
    109  OD2       42.6680   11.7490    6.7320 O.co2 149  ASP149     -0.2456
    110  N         45.6790    7.6260    8.9220 N.am  150  ARG150     -0.1979
    111  CA        46.7280    7.1680    9.8150 C.3   150  ARG150      0.1597
    112  C         47.3780    5.9090    9.2560 C.2   150  ARG150      0.2287
    113  O         48.5940    5.7590    9.2660 O.2   150  ARG150     -0.2864
    114  CB        46.1530    6.9070   11.2070 C.3   150  ARG150      0.0334
    115  CG        45.7210    8.1610   11.9250 C.3   150  ARG150      0.0492
    116  CD        45.1520    7.7710   13.2750 C.3   150  ARG150      0.2205
    117  NE        44.9090    8.8750   14.1940 N.pl3 150  ARG150     -0.0865
    118  CZ        43.8540    9.6780   14.1090 C.cat 150  ARG150      0.5346
    119  NH1       43.6700   10.6110   15.0310 N.pl3 150  ARG150      0.1354
    120  NH2       42.9830    9.5230   13.1030 N.pl3 150  ARG150      0.1354
    121  N         49.8610    6.0800    6.1680 N.3   153  VAL153     -0.1245
    122  CA        51.2400    6.5380    6.4740 C.3   153  VAL153      0.1561
    123  C         52.2410    5.3810    6.3280 C.2   153  VAL153      0.2260
    124  O         53.2940    5.5620    5.7280 O.2   153  VAL153     -0.2867
    125  CB        51.3420    7.1510    7.8780 C.3   153  VAL153      0.0252
    126  CG1       52.8170    7.5460    8.2190 C.3   153  VAL153      0.0019
    127  CG2       50.4520    8.3680    7.9840 C.3   153  VAL153      0.0019
    128  N         47.7510   15.9900    7.0660 N.3   177  PHE177     -0.1227
    129  CA        47.5630   14.5350    7.2990 C.3   177  PHE177      0.1736
    130  C         46.6350   13.7340    6.3330 C.2   177  PHE177      0.2595
    131  O         46.5370   12.5350    6.4620 O.2   177  PHE177     -0.2718
    132  CB        47.0370   14.3480    8.7270 C.3   177  PHE177      0.0547
    133  CG        45.7850   15.1410    9.0000 C.ar  177  PHE177     -0.0202
    134  CD1       44.5420   14.7040    8.4810 C.ar  177  PHE177     -0.0042
    135  CD2       45.8560   16.3610    9.7140 C.ar  177  PHE177     -0.0042
    136  CE1       43.3920   15.4370    8.6790 C.ar  177  PHE177     -0.0003
    137  CE2       44.6970   17.1000    9.9300 C.ar  177  PHE177     -0.0003
    138  CZ        43.4670   16.6340    9.4240 C.ar  177  PHE177     -0.0000
    139  N         45.9230   14.3830    5.4200 N.am  178  ASP178     -0.1974
    140  CA        45.0450   13.6870    4.4760 C.3   178  ASP178      0.1709
    141  C         45.8890   12.9130    3.4680 C.2   178  ASP178      0.2293
    142  O         46.7660   13.4960    2.8340 O.2   178  ASP178     -0.2864
    143  CB        44.1380   14.6980    3.7800 C.3   178  ASP178      0.1436
    144  CG        42.9830   15.1520    4.6650 C.2   178  ASP178      0.3671
    145  OD1       42.5430   14.3610    5.5170 O.co2 178  ASP178     -0.2456
    146  OD2       42.5210   16.2880    4.5460 O.co2 178  ASP178     -0.2456
@<TRIPOS>BOND
     1    43    44    1
     2    44    47    1
     3    44    45    1
     4    47    48    1
     5    48    49    1
     6    49    50    1
     7    45    54   am
     8    45    46    2
     9    54    55    1
    10    61    59    1
    11    57    56    2
    12    59    58    1
    13    50    51    2
    14    58    55    1
    15    58    60    1
    16    55    56    1
    17   142   141    2
    18    56    62   am
    19    77    76    1
    20    21    22    1
    21   141   140    1
    22    51    53    1
    23    51    52    1
    24    24    23    2
    25   143   140    1
    26   143   144    1
    27    22    23    1
    28    22    25    1
    29    62    63    1
    30   140   139    1
    31    76    75   ar
    32    76    74   ar
    33   146   144   ar
    34    63    64    1
    35   144   145   ar
    36    75    73   ar
    37    15    14    2
    38   108   107   ar
    39    12    13    1
    40    13    14    1
    41    13    16    1
    42    25    26    1
    43    74    72   ar
    44    17    16    1
    45    17    18    1
    46    65    64    2
    47   139   130   am
    48    64    66   am
    49    26    27    1
    50   124   123    2
    51    19    18    1
    52    19    20    1
    53    73    71   ar
    54   121   122    1
    55   123   122    1
    56   130   131    2
    57   130   129    1
    58   107   109   ar
    59   107   106    1
    60    72    71   ar
    61   122   125    1
    62    66    67    1
    63    71    70    1
    64   103   102    1
    65   103   106    1
    66   103   104    1
    67    28    27    1
    68    28    29    2
    69   128   129    1
    70   129   132    1
    71   105   104    2
    72    31    29    1
    73    67    70    1
    74    67    68    1
    75    29    30    1
    76   104   110   am
    77   125   127    1
    78   125   126    1
    79     1     2    1
    80   134   136   ar
    81   134   133   ar
    82     4     3    2
    83   136   138   ar
    84     3     2    1
    85   132   133    1
    86    68    78   am
    87    68    69    2
    88   110   111    1
    89    78    79    1
    90   133   135   ar
    91    92    93    2
    92    92    91    1
    93     2     5    1
    94   112   113    2
    95   112   111    1
    96   138   137   ar
    97   135   137   ar
    98   111   114    1
    99    10     9    1
   100    79    80    1
   101    87    88    1
   102    87    86    1
   103    90    91    1
   104    90    88   am
   105    91    94    1
   106    88    89    2
   107    94    95    1
   108    86    84   am
   109     5     6    1
   110     7     6    1
   111     7     8    1
   112     9     8    2
   113     9    11    1
   114    82    80   am
   115    82    83    1
   116    80    81    2
   117   114   115    1
   118    95    97   ar
   119    95    96   ar
   120    84    83    1
   121    84    85    2
   122    97    99   ar
   123   115   116    1
   124    96    98   ar
   125   120   118    1
   126    99   100   ar
   127   116   117    1
   128    98   100   ar
   129    35    34    2
   130   118   117    2
   131   118   119    1
   132   100   101    1
   133    34    33    1
   134    41    40    1
   135    37    36    1
   136    37    38    1
   137    36    33    1
   138    33    32    1
   139    42    40    1
   140    40    39    2
   141    39    38    1
