@<TRIPOS>MOLECULE
tmp/2jchA00.pdb
 173 166 0 0 0
SMALL
GASTEIGER

@<TRIPOS>ATOM
      1  N         40.3470   57.7950   41.8700 N.3   131  ALA131     -0.1231
      2  CA        41.3580   58.7380   41.3170 C.3   131  ALA131      0.1694
      3  C         40.8140   59.3470   40.0050 C.2   131  ALA131      0.2592
      4  O         39.6540   59.7580   40.0030 O.2   131  ALA131     -0.2718
      5  CB        42.8230   58.0370   41.1460 C.3   131  ALA131      0.0304
      6  N         41.6070   59.4250   38.8970 N.am  132  SER132     -0.1952
      7  CA        41.1030   60.0140   37.6600 C.3   132  SER132      0.1924
      8  C         39.9910   59.2090   36.8810 C.2   132  SER132      0.2314
      9  O         39.4420   59.7540   35.9700 O.2   132  SER132     -0.2863
     10  CB        42.2670   59.9560   36.6920 C.3   132  SER132      0.2116
     11  OG        43.0570   61.0060   37.1240 O.3   132  SER132     -0.2180
     12  N         36.6080   60.9160   36.5240 N.3   135  LYS135     -0.1245
     13  CA        36.3270   62.0350   35.6430 C.3   135  LYS135      0.1561
     14  C         35.2280   61.8380   34.5710 C.2   135  LYS135      0.2260
     15  O         34.3960   62.7760   34.3460 O.2   135  LYS135     -0.2867
     16  CB        37.6700   62.5010   35.0160 C.3   135  LYS135      0.0271
     17  CG        38.7550   62.8500   36.0580 C.3   135  LYS135      0.0035
     18  CD        39.7970   63.6420   35.4770 C.3   135  LYS135      0.0206
     19  CE        40.8440   64.0360   36.4400 C.3   135  LYS135      0.1093
     20  NZ        42.2660   63.9580   35.8030 N.3   135  LYS135     -0.1314
     21  N         48.0450   70.4830   40.7850 N.3   169  MET169     -0.1230
     22  CA        49.1690   69.8400   40.1920 C.3   169  MET169      0.1702
     23  C         48.8400   68.5850   39.3910 C.2   169  MET169      0.2592
     24  O         47.9100   67.8380   39.6880 O.2   169  MET169     -0.2718
     25  CB        50.0870   69.4510   41.3370 C.3   169  MET169      0.0401
     26  CG        50.5530   70.6690   42.1890 C.3   169  MET169      0.0596
     27  SD        51.7660   71.5810   41.2330 S.3   169  MET169     -0.1393
     28  CE        53.0860   70.3260   41.0090 C.3   169  MET169      0.0692
     29  N         49.6640   68.3340   38.3840 N.am  170  TYR170     -0.1962
     30  CA        49.6540   67.0570   37.6970 C.3   170  TYR170      0.1771
     31  C         51.0910   66.4490   37.7040 C.2   170  TYR170      0.2619
     32  O         51.9300   66.7200   36.8400 O.2   170  TYR170     -0.2715
     33  CB        48.9930   67.2710   36.3540 C.3   170  TYR170      0.0574
     34  CG        49.1220   66.1520   35.3540 C.ar  170  TYR170     -0.0198
     35  CD1       48.1740   65.1360   35.2790 C.ar  170  TYR170     -0.0009
     36  CD2       50.1980   66.1000   34.4760 C.ar  170  TYR170     -0.0009
     37  CE1       48.2800   64.1380   34.3810 C.ar  170  TYR170      0.0417
     38  CE2       50.3070   65.0560   33.5340 C.ar  170  TYR170      0.0417
     39  CZ        49.3460   64.1020   33.4950 C.ar  170  TYR170      0.1957
     40  OH        49.4520   63.0950   32.5520 O.3   170  TYR170     -0.2866
     41  N         51.3760   65.6620   38.7290 N.am  171  ALA171     -0.1977
     42  CA        52.7140   65.1460   38.9520 C.3   171  ALA171      0.1597
     43  C         53.4970   66.3750   39.3150 C.2   171  ALA171      0.2287
     44  O         53.0980   67.0720   40.2640 O.2   171  ALA171     -0.2864
     45  CB        53.3040   64.4610   37.6900 C.3   171  ALA171      0.0319
     46  N         45.5650   62.2200   28.5330 N.3   187  TYR187     -0.1227
     47  CA        46.6640   62.5200   29.4380 C.3   187  TYR187      0.1736
     48  C         46.1740   62.5340   30.8350 C.2   187  TYR187      0.2596
     49  O         46.9180   62.3760   31.7480 O.2   187  TYR187     -0.2718
     50  CB        47.1430   63.9570   29.1070 C.3   187  TYR187      0.0548
     51  CG        48.1330   63.9740   27.9630 C.ar  187  TYR187     -0.0200
     52  CD1       47.6990   63.9590   26.6490 C.ar  187  TYR187     -0.0009
     53  CD2       49.5230   63.8920   28.2390 C.ar  187  TYR187     -0.0009
     54  CE1       48.6260   63.8610   25.5850 C.ar  187  TYR187      0.0417
     55  CE2       50.4640   63.8440   27.2200 C.ar  187  TYR187      0.0417
     56  CZ        50.0180   63.8330   25.9240 C.ar  187  TYR187      0.1957
     57  OH        51.0100   63.7910   24.9850 O.3   187  TYR187     -0.2866
     58  N         44.8820   62.7960   31.0220 N.am  188  SER188     -0.1952
     59  CA        44.2870   62.8450   32.3500 C.3   188  SER188      0.1924
     60  C         44.7180   64.0930   33.1630 C.2   188  SER188      0.2314
     61  O         44.8460   64.0720   34.3480 O.2   188  SER188     -0.2863
     62  CB        44.7200   61.5480   33.0130 C.3   188  SER188      0.2116
     63  OG        43.7550   61.1140   33.8910 O.3   188  SER188     -0.2180
     64  N         44.4320   67.4330   35.3280 N.3   190  ASN190     -0.1240
     65  CA        43.4900   67.5900   36.4190 C.3   190  ASN190      0.1653
     66  C         42.7480   68.8690   36.4270 C.2   190  ASN190      0.2266
     67  O         41.5800   68.9350   36.8090 O.2   190  ASN190     -0.2867
     68  CB        44.2640   67.5340   37.7370 C.3   190  ASN190      0.1155
     69  CG        44.7250   66.1870   38.0740 C.2   190  ASN190      0.2627
     70  OD1       43.9870   65.1780   37.9140 O.2   190  ASN190     -0.2716
     71  ND2       45.9390   66.1120   38.5620 N.am  190  ASN190     -0.0877
     72  N         38.6730   64.3800   40.6800 N.3   228  MET228     -0.1245
     73  CA        39.9350   63.6600   40.6360 C.3   228  MET228      0.1570
     74  C         39.8750   62.4970   41.6200 C.2   228  MET228      0.2261
     75  O         40.7960   61.6990   41.7090 O.2   228  MET228     -0.2867
     76  CB        41.1510   64.6370   40.8920 C.3   228  MET228      0.0387
     77  CG        41.3610   65.7340   39.6810 C.3   228  MET228      0.0595
     78  SD        40.5960   67.3200   40.1550 S.3   228  MET228     -0.1393
     79  CE        41.9580   68.0210   41.1260 C.3   228  MET228      0.0692
     80  N         48.8990   56.8560   26.1280 N.3   300  VAL300     -0.1231
     81  CA        49.5900   57.8290   27.0000 C.3   300  VAL300      0.1692
     82  C         49.6970   57.3320   28.4180 C.2   300  VAL300      0.2592
     83  O         50.7730   57.3670   29.0040 O.2   300  VAL300     -0.2718
     84  CB        48.8800   59.2420   27.0030 C.3   300  VAL300      0.0266
     85  CG1       49.6270   60.1280   27.9070 C.3   300  VAL300      0.0020
     86  CG2       48.7450   59.8500   25.5670 C.3   300  VAL300      0.0020
     87  N         48.5800   56.8380   28.9710 N.am  301  THR301     -0.1953
     88  CA        48.5220   56.5300   30.3980 C.3   301  THR301      0.1897
     89  C         48.4510   55.0450   30.6400 C.2   301  THR301      0.2313
     90  O         48.3710   54.6040   31.7900 O.2   301  THR301     -0.2863
     91  CB        47.3960   57.3070   31.1560 C.3   301  THR301      0.1794
     92  OG1       46.1290   56.9720   30.5810 O.3   301  THR301     -0.2208
     93  CG2       47.5580   58.8630   31.0960 C.3   301  THR301      0.0378
     94  N         39.7260   53.4910   30.8490 N.3   323  LYS323     -0.1231
     95  CA        40.2390   54.6470   31.5430 C.3   323  LYS323      0.1693
     96  C         41.0960   54.2110   32.7400 C.2   323  LYS323      0.2593
     97  O         40.8730   53.1550   33.2920 O.2   323  LYS323     -0.2718
     98  CB        39.0560   55.5560   31.8790 C.3   323  LYS323      0.0285
     99  CG        39.4020   56.9320   32.5500 C.3   323  LYS323      0.0035
    100  CD        40.3690   57.8100   31.7620 C.3   323  LYS323      0.0206
    101  CE        40.9030   58.9650   32.6560 C.3   323  LYS323      0.1093
    102  NZ        42.0780   59.5220   32.0370 N.3   323  LYS323     -0.1314
    103  N         42.1200   54.9770   33.0870 N.am  324  THR324     -0.1939
    104  CA        43.0630   54.6480   34.1970 C.3   324  THR324      0.2028
    105  C         42.9970   55.6440   35.3740 C.2   324  THR324      0.2643
    106  O         42.5450   56.7630   35.2290 O.2   324  THR324     -0.2714
    107  CB        44.5490   54.7590   33.6920 C.3   324  THR324      0.1808
    108  OG1       44.6380   55.8640   32.7980 O.3   324  THR324     -0.2208
    109  CG2       45.0270   53.5340   33.0320 C.3   324  THR324      0.0379
    110  N         43.5350   55.2870   36.5170 N.am  325  GLY325     -0.1939
    111  CA        43.6330   56.2550   37.6150 C.3   325  GLY325      0.2014
    112  C         44.8360   55.8600   38.4590 C.2   325  GLY325      0.2640
    113  O         45.2060   54.6490   38.5110 O.2   325  GLY325     -0.2714
    114  N         45.4860   56.8940   39.0170 N.am  326  THR326     -0.1936
    115  CA        46.6010   56.8110   39.9510 C.3   326  THR326      0.2028
    116  C         46.3170   57.7120   41.0880 C.2   326  THR326      0.2643
    117  O         46.0020   58.8420   40.8370 O.2   326  THR326     -0.2714
    118  CB        47.8450   57.3250   39.3100 C.3   326  THR326      0.1808
    119  OG1       47.9410   56.6560   38.0670 O.3   326  THR326     -0.2208
    120  CG2       49.0960   56.9310   40.1430 C.3   326  THR326      0.0379
    121  N         46.3550   57.2150   42.3380 N.am  327  THR327     -0.1936
    122  CA        46.1510   58.1290   43.5290 C.3   327  THR327      0.2028
    123  C         47.4510   58.9120   43.8070 C.2   327  THR327      0.2642
    124  O         48.5490   58.5350   43.2930 O.2   327  THR327     -0.2714
    125  CB        45.5760   57.4740   44.7710 C.3   327  THR327      0.1808
    126  OG1       46.5630   56.6060   45.3240 O.3   327  THR327     -0.2208
    127  CG2       44.2580   56.7160   44.4870 C.3   327  THR327      0.0379
    128  N         47.3410   60.0610   44.4680 N.am  328  ASN328     -0.1957
    129  CA        48.4120   61.0300   44.2030 C.3   328  ASN328      0.1819
    130  C         49.6410   60.9540   45.0420 C.2   328  ASN328      0.2621
    131  O         49.9390   61.9130   45.6930 O.2   328  ASN328     -0.2715
    132  CB        47.9670   62.5210   43.8510 C.3   328  ASN328      0.1195
    133  CG        47.0290   63.1660   44.8630 C.2   328  ASN328      0.2630
    134  OD1       46.1270   63.9280   44.4800 O.2   328  ASN328     -0.2716
    135  ND2       47.2610   62.9050   46.1610 N.am  328  ASN328     -0.0877
    136  N         50.3780   59.8580   44.8960 N.am  329  GLN329     -0.1963
    137  CA        51.4070   59.2420   45.7760 C.3   329  GLN329      0.1733
    138  C         51.6430   57.7930   45.3590 C.2   329  GLN329      0.2616
    139  O         52.3620   57.0790   46.0330 O.2   329  GLN329     -0.2715
    140  CB        50.9670   59.1390   47.2010 C.3   329  GLN329      0.0408
    141  CG        50.9640   60.4190   48.0080 C.3   329  GLN329      0.0908
    142  CD        52.3100   60.8860   48.4120 C.2   329  GLN329      0.2608
    143  OE1       52.6460   60.8030   49.5970 O.2   329  GLN329     -0.2717
    144  NE2       53.0770   61.4370   47.4700 N.am  329  GLN329     -0.0878
    145  N         50.9460   57.3660   44.2900 N.am  330  ASP330     -0.1971
    146  CA        51.1770   56.1280   43.5530 C.3   330  ASP330      0.1709
    147  C         50.6630   54.9670   44.3590 C.2   330  ASP330      0.2293
    148  O         51.0900   53.8390   44.1880 O.2   330  ASP330     -0.2864
    149  CB        52.6850   55.8870   43.2080 C.3   330  ASP330      0.1436
    150  CG        53.1630   56.6570   42.0360 C.2   330  ASP330      0.3671
    151  OD1       52.4160   57.3990   41.3990 O.co2 330  ASP330     -0.2456
    152  OD2       54.3550   56.5030   41.7100 O.co2 330  ASP330     -0.2456
    153  N         56.5840   53.6610   40.3810 N.3   358  GLN358     -0.1245
    154  CA        56.1550   54.6700   39.4130 C.3   358  GLN358      0.1566
    155  C         55.4170   54.1220   38.1760 C.2   358  GLN358      0.2260
    156  O         54.3690   54.6470   37.8110 O.2   358  GLN358     -0.2867
    157  CB        57.3190   55.5800   39.0550 C.3   358  GLN358      0.0367
    158  CG        56.9750   56.7490   38.1490 C.3   358  GLN358      0.0905
    159  CD        58.1970   57.7490   38.0120 C.2   358  GLN358      0.2608
    160  OE1       58.8960   57.7780   36.9460 O.2   358  GLN358     -0.2717
    161  NE2       58.4730   58.5360   39.1210 N.am  358  GLN358     -0.0878
    162  N         50.6510   52.2640   34.5870 N.3   362  TYR362     -0.1241
    163  CA        51.1390   52.4410   33.2060 C.3   362  TYR362      0.1605
    164  C         51.4610   51.1420   32.4810 C.2   362  TYR362      0.2264
    165  O         50.8890   50.8860   31.4110 O.2   362  TYR362     -0.2867
    166  CB        52.2450   53.5440   33.1200 C.3   362  TYR362      0.0534
    167  CG        52.8210   53.7250   31.7260 C.ar  362  TYR362     -0.0201
    168  CD1       52.0830   54.3800   30.7230 C.ar  362  TYR362     -0.0009
    169  CD2       54.1320   53.2170   31.3900 C.ar  362  TYR362     -0.0009
    170  CE1       52.5960   54.5830   29.4030 C.ar  362  TYR362      0.0417
    171  CE2       54.6540   53.4100   30.0560 C.ar  362  TYR362      0.0417
    172  CZ        53.8610   54.0970   29.0640 C.ar  362  TYR362      0.1957
    173  OH        54.3230   54.2380   27.7580 O.3   362  TYR362     -0.2866
@<TRIPOS>BOND
     1    57    56    1
     2    86    84    1
     3    54    56   ar
     4    54    52   ar
     5    56    55   ar
     6    80    81    1
     7    52    51   ar
     8    81    84    1
     9    81    82    1
    10    84    85    1
    11    55    53   ar
    12   173   172    1
    13    51    53   ar
    14    51    50    1
    15    82    87   am
    16    82    83    2
    17    46    47    1
    18    87    88    1
    19   172   170   ar
    20   172   171   ar
    21    50    47    1
    22   170   168   ar
    23    47    48    1
    24   171   169   ar
    25    88    89    1
    26    88    91    1
    27    92    91    1
    28    89    90    2
    29   168   167   ar
    30    48    58   am
    31    48    49    2
    32    94    95    1
    33    58    59    1
    34    93    91    1
    35   169   167   ar
    36   165   164    2
    37    95    98    1
    38    95    96    1
    39   167   166    1
    40   100    99    1
    41   100   101    1
    42    98    99    1
    43   102   101    1
    44    59    62    1
    45    59    60    1
    46   164   163    1
    47    40    39    1
    48    96   103   am
    49    96    97    2
    50   108   107    1
    51    62    63    1
    52   109   107    1
    53   103   104    1
    54   166   163    1
    55    60    61    2
    56   163   162    1
    57    39    38   ar
    58    39    37   ar
    59    38    36   ar
    60   107   104    1
    61   104   105    1
    62    15    14    2
    63    37    35   ar
    64    36    34   ar
    65    14    13    1
    66    16    13    1
    67    16    17    1
    68   106   105    2
    69    35    34   ar
    70    64    65    1
    71    34    33    1
    72   105   110   am
    73    18    17    1
    74    18    19    1
    75    13    12    1
    76    20    19    1
    77     9     8    2
    78    33    30    1
    79    65    66    1
    80    65    68    1
    81    66    67    2
    82   110   111    1
    83    10    11    1
    84    10     7    1
    85    32    31    2
    86     8     7    1
    87   160   159    2
    88   111   112    1
    89     7     6    1
    90    45    42    1
    91    30    31    1
    92    30    29    1
    93    31    41   am
    94    68    69    1
    95   156   155    2
    96    70    69    2
    97   159   158    1
    98   159   161   am
    99   119   118    1
   100    69    71   am
   101   158   157    1
   102   155   154    1
   103    29    23   am
   104   112   113    2
   105   112   114   am
   106    41    42    1
   107     6     3   am
   108    42    43    1
   109   114   115    1
   110   157   154    1
   111   118   115    1
   112   118   120    1
   113    43    44    2
   114    23    24    2
   115    23    22    1
   116   154   153    1
   117    77    78    1
   118    77    76    1
   119   115   116    1
   120     4     3    2
   121     3     2    1
   122    78    79    1
   123    22    21    1
   124    22    25    1
   125    73    72    1
   126    73    76    1
   127    73    74    1
   128   117   116    2
   129    28    27    1
   130   116   121   am
   131     5     2    1
   132    27    26    1
   133     2     1    1
   134    25    26    1
   135   151   150   ar
   136    74    75    2
   137   152   150   ar
   138   150   149    1
   139   121   122    1
   140   149   146    1
   141   124   123    2
   142   122   123    1
   143   122   125    1
   144   146   145    1
   145   146   147    1
   146   123   128   am
   147   132   129    1
   148   132   133    1
   149   148   147    2
   150   129   128    1
   151   129   130    1
   152   145   138   am
   153   134   133    2
   154   127   125    1
   155   125   126    1
   156   133   135   am
   157   136   130   am
   158   136   137    1
   159   130   131    2
   160   138   137    1
   161   138   139    2
   162   137   140    1
   163   140   141    1
   164   144   142   am
   165   141   142    1
   166   142   143    2
