@<TRIPOS>MOLECULE
tmp/2jcjA02.pdb
 132 134 0 0 0
SMALL
GASTEIGER

@<TRIPOS>ATOM
      1  N         30.1750   -0.0350   -3.0640 N.3   166  GLN166     -0.1245
      2  CA        30.4010    1.3840   -3.2900 C.3   166  GLN166      0.1566
      3  C         31.0810    1.5930   -4.6460 C.2   166  GLN166      0.2260
      4  O         32.0950    0.9650   -4.9550 O.2   166  GLN166     -0.2867
      5  CB        31.2320    1.9430   -2.1420 C.3   166  GLN166      0.0367
      6  CG        30.9330    3.3920   -1.8070 C.3   166  GLN166      0.0905
      7  CD        31.6350    4.3480   -2.7340 C.2   166  GLN166      0.2608
      8  OE1       32.4970    3.9420   -3.5100 O.2   166  GLN166     -0.2717
      9  NE2       31.2850    5.6270   -2.6510 N.am  166  GLN166     -0.0878
     10  N         32.9950    3.8990   -5.9970 N.3   168  TRP168     -0.1227
     11  CA        34.3900    4.3410   -6.0260 C.3   168  TRP168      0.1737
     12  C         35.4520    3.2930   -5.7030 C.2   168  TRP168      0.2595
     13  O         36.5180    3.2790   -6.3130 O.2   168  TRP168     -0.2718
     14  CB        34.6050    5.5030   -5.0510 C.3   168  TRP168      0.0564
     15  CG        33.8350    6.7500   -5.3530 C.ar  168  TRP168      0.0003
     16  CD1       33.1790    7.0540   -6.5100 C.ar  168  TRP168      0.0946
     17  CD2       33.6590    7.8750   -4.4820 C.ar  168  TRP168      0.0152
     18  NE1       32.6020    8.2990   -6.4150 N.ar  168  TRP168     -0.2442
     19  CE2       32.8800    8.8260   -5.1810 C.ar  168  TRP168      0.0810
     20  CE3       34.0840    8.1720   -3.1770 C.ar  168  TRP168      0.0012
     21  CZ2       32.5130   10.0580   -4.6180 C.ar  168  TRP168      0.0191
     22  CZ3       33.7200    9.4030   -2.6170 C.ar  168  TRP168      0.0001
     23  CH2       32.9420   10.3280   -3.3390 C.ar  168  TRP168      0.0015
     24  N         35.1570    2.4260   -4.7430 N.am  169  TRP169     -0.1976
     25  CA        36.1220    1.4380   -4.2830 C.3   169  TRP169      0.1640
     26  C         35.9070   -0.0180   -4.6460 C.2   169  TRP169      0.2290
     27  O         36.6370   -0.8700   -4.1540 O.2   169  TRP169     -0.2864
     28  CB        36.2220    1.5280   -2.7600 C.3   169  TRP169      0.0576
     29  CG        36.3530    2.9220   -2.2640 C.ar  169  TRP169      0.0006
     30  CD1       35.3780    3.6880   -1.6920 C.ar  169  TRP169      0.0946
     31  CD2       37.5200    3.7440   -2.3400 C.ar  169  TRP169      0.0152
     32  NE1       35.8670    4.9420   -1.4070 N.ar  169  TRP169     -0.2442
     33  CE2       37.1810    5.0020   -1.7960 C.ar  169  TRP169      0.0810
     34  CE3       38.8190    3.5400   -2.8160 C.ar  169  TRP169      0.0012
     35  CZ2       38.1000    6.0560   -1.7160 C.ar  169  TRP169      0.0191
     36  CZ3       39.7320    4.5850   -2.7370 C.ar  169  TRP169      0.0001
     37  CH2       39.3660    5.8280   -2.1890 C.ar  169  TRP169      0.0015
     38  N         37.7580    3.6420    2.7320 N.3   178  THR178     -0.1218
     39  CA        37.6310    4.7440    3.6800 C.3   178  THR178      0.1862
     40  C         36.8840    4.3640    4.9590 C.2   178  THR178      0.2287
     41  O         36.0270    5.1110    5.4360 O.2   178  THR178     -0.2866
     42  CB        36.9490    5.9750    3.0390 C.3   178  THR178      0.1770
     43  OG1       35.7030    5.5890    2.4550 O.3   178  THR178     -0.2211
     44  CG2       37.8490    6.5810    1.9730 C.3   178  THR178      0.0375
     45  N         33.9240   -2.3380    0.4590 N.3   197  TYR197     -0.1241
     46  CA        33.4720   -1.0830    1.0340 C.3   197  TYR197      0.1605
     47  C         32.0410   -0.9130    0.5530 C.2   197  TYR197      0.2264
     48  O         31.7920   -0.7020   -0.6380 O.2   197  TYR197     -0.2867
     49  CB        34.3020    0.1180    0.5870 C.3   197  TYR197      0.0534
     50  CG        33.9290    1.3590    1.3800 C.ar  197  TYR197     -0.0201
     51  CD1       32.9540    2.2470    0.9230 C.ar  197  TYR197     -0.0009
     52  CD2       34.5010    1.6000    2.6300 C.ar  197  TYR197     -0.0009
     53  CE1       32.5550    3.3550    1.7010 C.ar  197  TYR197      0.0417
     54  CE2       34.1140    2.6900    3.4090 C.ar  197  TYR197      0.0417
     55  CZ        33.1460    3.5630    2.9430 C.ar  197  TYR197      0.1957
     56  OH        32.7970    4.6430    3.7220 O.3   197  TYR197     -0.2866
     57  N         28.2830    0.8540    0.2950 N.3   199  HIS199     -0.1241
     58  CA        27.6400    2.1650    0.2210 C.3   199  HIS199      0.1621
     59  C         26.3940    2.1840    1.1080 C.2   199  HIS199      0.2264
     60  O         25.5580    1.2860    1.0290 O.2   199  HIS199     -0.2867
     61  CB        27.2450    2.4440   -1.2310 C.3   199  HIS199      0.0745
     62  CG        26.9290    3.8790   -1.5170 C.ar  199  HIS199      0.0817
     63  ND1       26.5780    4.3220   -2.7730 N.ar  199  HIS199     -0.2268
     64  CD2       26.9400    4.9740   -0.7210 C.ar  199  HIS199      0.1154
     65  CE1       26.3910    5.6290   -2.7410 C.ar  199  HIS199      0.1986
     66  NE2       26.6040    6.0500   -1.5070 N.ar  199  HIS199     -0.2212
     67  N         32.6560    8.6040    8.0180 N.3   233  TRP233     -0.1241
     68  CA        31.5210    8.6200    7.1110 C.3   233  TRP233      0.1605
     69  C         30.2020    8.1950    7.7640 C.2   233  TRP233      0.2264
     70  O         29.3710    7.5030    7.1730 O.2   233  TRP233     -0.2867
     71  CB        31.8430    7.8000    5.8570 C.3   233  TRP233      0.0550
     72  CG        32.8600    8.5080    5.0090 C.ar  233  TRP233      0.0003
     73  CD1       34.0560    8.0130    4.5650 C.ar  233  TRP233      0.0946
     74  CD2       32.8050    9.8730    4.5730 C.ar  233  TRP233      0.0152
     75  NE1       34.7500    8.9890    3.8870 N.ar  233  TRP233     -0.2442
     76  CE2       34.0060   10.1400    3.8790 C.ar  233  TRP233      0.0810
     77  CE3       31.8560   10.8980    4.7060 C.ar  233  TRP233      0.0012
     78  CZ2       34.2870   11.3960    3.3180 C.ar  233  TRP233      0.0191
     79  CZ3       32.1350   12.1460    4.1510 C.ar  233  TRP233      0.0001
     80  CH2       33.3460   12.3810    3.4650 C.ar  233  TRP233      0.0015
     81  N         27.4820    5.2510    7.3600 N.3   236  GLU236     -0.1245
     82  CA        28.1090    4.3590    6.3930 C.3   236  GLU236      0.1567
     83  C         29.3050    3.6350    7.0150 C.2   236  GLU236      0.2260
     84  O         29.5520    2.4610    6.7280 O.2   236  GLU236     -0.2867
     85  CB        28.5500    5.1360    5.1530 C.3   236  GLU236      0.0388
     86  CG        28.9720    4.2430    4.0050 C.3   236  GLU236      0.1160
     87  CD        29.3290    5.0250    2.7570 C.2   236  GLU236      0.3649
     88  OE1       30.4260    5.6280    2.7210 O.co2 236  GLU236     -0.2457
     89  OE2       28.5040    5.0420    1.8190 O.co2 236  GLU236     -0.2457
     90  N         23.6550    8.0860   -8.7070 N.3   275  TRP275     -0.1241
     91  CA        23.7270    9.1750   -7.7410 C.3   275  TRP275      0.1605
     92  C         23.2140   10.4320   -8.4400 C.2   275  TRP275      0.2264
     93  O         23.3980   10.5900   -9.6460 O.2   275  TRP275     -0.2867
     94  CB        25.1790    9.4250   -7.3100 C.3   275  TRP275      0.0550
     95  CG        25.8920    8.2650   -6.6520 C.ar  275  TRP275      0.0003
     96  CD1       25.5010    6.9550   -6.6270 C.ar  275  TRP275      0.0946
     97  CD2       27.1850    8.3070   -6.0280 C.ar  275  TRP275      0.0152
     98  NE1       26.4770    6.1780   -6.0360 N.ar  275  TRP275     -0.2442
     99  CE2       27.5190    6.9840   -5.6600 C.ar  275  TRP275      0.0810
    100  CE3       28.0960    9.3360   -5.7530 C.ar  275  TRP275      0.0012
    101  CZ2       28.7260    6.6630   -5.0330 C.ar  275  TRP275      0.0191
    102  CZ3       29.3010    9.0170   -5.1290 C.ar  275  TRP275      0.0001
    103  CH2       29.6020    7.6870   -4.7770 C.ar  275  TRP275      0.0015
    104  N         29.9690   14.0060   -5.7610 N.3   279  GLU279     -0.1231
    105  CA        30.5130   14.0830   -4.4100 C.3   279  GLU279      0.1699
    106  C         32.0250   13.8640   -4.4350 C.2   279  GLU279      0.2592
    107  O         32.5180   12.9450   -5.0950 O.2   279  GLU279     -0.2718
    108  CB        29.8340   13.0460   -3.5130 C.3   279  GLU279      0.0402
    109  CG        28.4870   13.4930   -2.9670 C.3   279  GLU279      0.1161
    110  CD        27.7030   12.3640   -2.3060 C.2   279  GLU279      0.3649
    111  OE1       28.3280   11.4590   -1.7100 O.co2 279  GLU279     -0.2457
    112  OE2       26.4540   12.3880   -2.3720 O.co2 279  GLU279     -0.2457
    113  N         32.7590   14.7090   -3.7200 N.am  280  TYR280     -0.1962
    114  CA        34.2160   14.6110   -3.6810 C.3   280  TYR280      0.1771
    115  C         34.6940   13.6250   -2.6330 C.2   280  TYR280      0.2619
    116  O         33.9300   13.1940   -1.7740 O.2   280  TYR280     -0.2715
    117  CB        34.8620   15.9640   -3.3380 C.3   280  TYR280      0.0574
    118  CG        34.6210   17.0930   -4.3130 C.ar  280  TYR280     -0.0198
    119  CD1       34.4900   16.8520   -5.6800 C.ar  280  TYR280     -0.0009
    120  CD2       34.5640   18.4110   -3.8700 C.ar  280  TYR280     -0.0009
    121  CE1       34.3070   17.9000   -6.5810 C.ar  280  TYR280      0.0417
    122  CE2       34.3810   19.4670   -4.7630 C.ar  280  TYR280      0.0417
    123  CZ        34.2530   19.2020   -6.1150 C.ar  280  TYR280      0.1957
    124  OH        34.0610   20.2380   -7.0020 O.3   280  TYR280     -0.2866
    125  N         35.9740   13.2810   -2.7190 N.am  281  ASN281     -0.1972
    126  CA        36.6290   12.3960   -1.7560 C.3   281  ASN281      0.1688
    127  C         37.7570   13.2530   -1.2010 C.2   281  ASN281      0.2292
    128  O         38.9270   13.0450   -1.5300 O.2   281  ASN281     -0.2864
    129  CB        37.2380   11.1640   -2.4280 C.3   281  ASN281      0.1181
    130  CG        38.0100   10.2980   -1.4500 C.2   281  ASN281      0.2629
    131  OD1       39.0140    9.6660   -1.8060 O.2   281  ASN281     -0.2716
    132  ND2       37.5440   10.2580   -0.2040 N.am  281  ASN281     -0.0877
@<TRIPOS>BOND
     1    93    92    2
     2    90    91    1
     3    92    91    1
     4    91    94    1
     5    94    95    1
     6   124   123    1
     7    95    96   ar
     8    95    97   ar
     9    96    98   ar
    10   121   123   ar
    11   121   119   ar
    12    16    18   ar
    13    16    15   ar
    14    18    19   ar
    15    13    12    2
    16   123   122   ar
    17    98    99   ar
    18    97   100   ar
    19    97    99   ar
    20    11    10    1
    21    11    12    1
    22    11    14    1
    23   104   105    1
    24   100   102   ar
    25    12    24   am
    26   119   118   ar
    27    99   101   ar
    28    15    14    1
    29    15    17   ar
    30    19    21   ar
    31    19    17   ar
    32   102   103   ar
    33   107   106    2
    34   101   103   ar
    35     4     3    2
    36   122   120   ar
    37    24    25    1
    38    26    25    1
    39    26    27    2
    40     3     2    1
    41    21    23   ar
    42    17    20   ar
    43   106   105    1
    44   106   113   am
    45   105   108    1
    46   118   120   ar
    47   118   117    1
    48    25    28    1
    49   113   114    1
    50   114   117    1
    51   114   115    1
    52   108   109    1
    53     8     7    2
    54    23    22   ar
    55     2     1    1
    56     2     5    1
    57    20    22   ar
    58   109   110    1
    59    34    36   ar
    60    34    31   ar
    61    63    65   ar
    62    63    62   ar
    63    28    29    1
    64    65    66   ar
    65    36    37   ar
    66     7     9   am
    67     7     6    1
    68   125   115   am
    69   125   126    1
    70   115   116    2
    71   129   126    1
    72   129   130    1
    73   112   110   ar
    74    31    29   ar
    75    31    33   ar
    76   110   111   ar
    77    29    30   ar
    78    37    35   ar
    79     5     6    1
    80   131   130    2
    81    33    35   ar
    82    33    32   ar
    83   126   127    1
    84    30    32   ar
    85   128   127    2
    86    62    61    1
    87    62    64   ar
    88    66    64   ar
    89   130   132   am
    90    61    58    1
    91    48    47    2
    92    58    57    1
    93    58    59    1
    94    45    46    1
    95    47    46    1
    96    49    46    1
    97    49    50    1
    98    51    50   ar
    99    51    53   ar
   100    60    59    2
   101    50    52   ar
   102    53    55   ar
   103    89    87   ar
   104    44    42    1
   105    43    42    1
   106    52    54   ar
   107    88    87   ar
   108    38    39    1
   109    87    86    1
   110    55    54   ar
   111    55    56    1
   112    42    39    1
   113    78    80   ar
   114    78    76   ar
   115    80    79   ar
   116    39    40    1
   117    76    75   ar
   118    76    74   ar
   119    75    73   ar
   120    86    85    1
   121    79    77   ar
   122    73    72   ar
   123    74    77   ar
   124    74    72   ar
   125    40    41    2
   126    72    71    1
   127    85    82    1
   128    71    68    1
   129    82    83    1
   130    82    81    1
   131    84    83    2
   132    68    69    1
   133    68    67    1
   134    70    69    2
