@<TRIPOS>MOLECULE
tmp/2jcqA00.pdb
 146 142 0 0 0
SMALL
GASTEIGER

@<TRIPOS>ATOM
      1  N          6.5860   -0.1370    2.7020 N.3    17  GLU17      -0.1245
      2  CA         7.5280   -0.1900    3.8160 C.3    17  GLU17       0.1567
      3  C          8.4010    1.0320    3.7140 C.2    17  GLU17       0.2260
      4  O          8.9010    1.3680    2.6600 O.2    17  GLU17      -0.2867
      5  CB         8.3460   -1.4740    3.7970 C.3    17  GLU17       0.0388
      6  CG         9.3940   -1.6130    4.8400 C.3    17  GLU17       0.1160
      7  CD        10.0730   -2.9510    4.7850 C.2    17  GLU17       0.3649
      8  OE1        9.5120   -3.8870    4.1250 O.co2  17  GLU17      -0.2457
      9  OE2       11.1850   -3.0220    5.4130 O.co2  17  GLU17      -0.2457
     10  N         10.1060   -1.5090   10.2510 N.3    22  TYR22      -0.1241
     11  CA         8.7500   -1.1680   10.7810 C.3    22  TYR22       0.1605
     12  C          8.8290    0.2210   11.3810 C.2    22  TYR22       0.2264
     13  O          9.5450    0.4240   12.3600 O.2    22  TYR22      -0.2867
     14  CB         8.3080   -2.1740   11.8410 C.3    22  TYR22       0.0534
     15  CG         7.8810   -3.5390   11.3540 C.ar   22  TYR22      -0.0201
     16  CD1        8.4760   -4.6800   11.8250 C.ar   22  TYR22      -0.0009
     17  CD2        6.8480   -3.6740   10.4700 C.ar   22  TYR22      -0.0009
     18  CE1        8.0870   -5.9160   11.4180 C.ar   22  TYR22       0.0417
     19  CE2        6.4300   -4.8930   10.0480 C.ar   22  TYR22       0.0417
     20  CZ         7.0320   -6.0280   10.5280 C.ar   22  TYR22       0.1957
     21  OH         6.5860   -7.2650   10.1100 O.3    22  TYR22      -0.2866
     22  N          2.3290  -11.1000    1.9570 N.3    56  THR56      -0.1203
     23  CA         3.5820  -10.4800    2.4140 C.3    56  THR56       0.1994
     24  C          4.0020  -11.1920    3.6810 C.2    56  THR56       0.2618
     25  O          3.2670  -12.0010    4.2350 O.2    56  THR56      -0.2717
     26  CB         3.4450   -8.9850    2.7880 C.3    56  THR56       0.1784
     27  OG1        2.8090   -8.8980    4.0520 O.3    56  THR56      -0.2211
     28  CG2        2.7000   -8.1320    1.7410 C.3    56  THR56       0.0376
     29  N          5.1920  -10.8750    4.1750 N.am   57  CYS57      -0.1955
     30  CA         5.6170  -11.3300    5.4870 C.3    57  CYS57       0.1843
     31  C          5.8460  -10.1090    6.3660 C.2    57  CYS57       0.2625
     32  O          6.8380  -10.0480    7.0780 O.2    57  CYS57      -0.2714
     33  CB         6.8960  -12.1490    5.3670 C.3    57  CYS57       0.0997
     34  SG         7.3150  -13.0310    6.8890 S.3    57  CYS57      -0.0797
     35  N          4.9010   -9.1660    6.3320 N.am   58  ARG58      -0.1963
     36  CA         5.0230   -7.9250    7.0920 C.3    58  ARG58       0.1729
     37  C          3.7430   -7.5010    7.6870 C.2    58  ARG58       0.2616
     38  O          2.7380   -7.4270    6.9720 O.2    58  ARG58      -0.2715
     39  CB         5.4690   -6.7820    6.1790 C.3    58  ARG58       0.0348
     40  CG         6.8100   -6.9870    5.5170 C.3    58  ARG58       0.0492
     41  CD         7.9870   -6.9100    6.4600 C.3    58  ARG58       0.2205
     42  NE         8.2100   -5.5260    6.8980 N.pl3  58  ARG58      -0.0865
     43  CZ         9.1760   -5.1370    7.7280 C.cat  58  ARG58       0.5346
     44  NH1       10.0610   -6.0140    8.1860 N.pl3  58  ARG58       0.1354
     45  NH2        9.2770   -3.8660    8.0900 N.pl3  58  ARG58       0.1354
     46  N          3.7820   -7.1410    8.9630 N.am   59  TYR59      -0.1974
     47  CA         2.6430   -6.4820    9.5880 C.3    59  TYR59       0.1639
     48  C          2.4280   -5.0990    8.9970 C.2    59  TYR59       0.2290
     49  O          3.3490   -4.3380    8.8870 O.2    59  TYR59      -0.2864
     50  CB         2.8780   -6.3390   11.1130 C.3    59  TYR59       0.0560
     51  CG         2.8640   -7.6700   11.8120 C.ar   59  TYR59      -0.0198
     52  CD1        4.0240   -8.2630   12.2430 C.ar   59  TYR59      -0.0009
     53  CD2        1.6740   -8.3460   11.9500 C.ar   59  TYR59      -0.0009
     54  CE1        4.0020   -9.5450   12.8000 C.ar   59  TYR59       0.0417
     55  CE2        1.6310   -9.6290   12.5100 C.ar   59  TYR59       0.0417
     56  CZ         2.7940  -10.2190   12.9130 C.ar   59  TYR59       0.1957
     57  OH         2.7640  -11.4980   13.4750 O.3    59  TYR59      -0.2866
     58  N         -1.4340   -9.2460    8.2880 N.3    68  ILE68      -0.1245
     59  CA        -0.5250   -9.8180    7.2780 C.3    68  ILE68       0.1561
     60  C         -1.3630  -10.7420    6.3830 C.2    68  ILE68       0.2260
     61  O         -1.8950  -11.6890    6.9160 O.2    68  ILE68      -0.2867
     62  CB         0.6330  -10.6640    7.8590 C.3    68  ILE68       0.0252
     63  CG1        1.4330   -9.9330    8.8960 C.3    68  ILE68       0.0019
     64  CG2        1.5130  -11.1020    6.7680 C.3    68  ILE68       0.0019
     65  CD1        2.6570  -10.6530    9.4120 C.3    68  ILE68       0.0001
     66  N         -1.6640  -13.7930    4.0950 N.3    70  ARG70      -0.1245
     67  CA        -0.8780  -15.0020    3.9080 C.3    70  ARG70       0.1563
     68  C         -1.5720  -16.0070    3.0260 C.2    70  ARG70       0.2260
     69  O         -2.7250  -16.3700    3.2710 O.2    70  ARG70      -0.2867
     70  CB        -0.5980  -15.6740    5.2570 C.3    70  ARG70       0.0307
     71  CG         0.3410  -14.9050    6.1950 C.3    70  ARG70       0.0489
     72  CD         1.7170  -14.6180    5.6180 C.3    70  ARG70       0.2205
     73  NE         2.3860  -15.8130    5.0970 N.pl3  70  ARG70      -0.0865
     74  CZ         3.3870  -15.8030    4.2360 C.cat  70  ARG70       0.5346
     75  NH1        3.8810  -14.6770    3.7540 N.pl3  70  ARG70       0.1354
     76  NH2        3.9530  -16.9430    3.8940 N.pl3  70  ARG70       0.1354
     77  N          3.9280  -20.1670    6.4590 N.3    74  ASN74      -0.1225
     78  CA         5.3690  -20.0380    6.7590 C.3    74  ASN74       0.1785
     79  C          5.5200  -19.7360    8.2330 C.2    74  ASN74       0.2597
     80  O          4.8460  -18.8630    8.7690 O.2    74  ASN74      -0.2718
     81  CB         5.9670  -18.9030    5.9290 C.3    74  ASN74       0.1169
     82  CG         7.4770  -18.7820    6.0570 C.2    74  ASN74       0.2627
     83  OD1        8.0090  -18.6620    7.1680 O.2    74  ASN74      -0.2716
     84  ND2        8.1720  -18.7530    4.9160 N.am   74  ASN74      -0.0877
     85  N          6.3930  -20.4750    8.9080 N.am   75  ALA75      -0.1966
     86  CA         6.4890  -20.3810   10.3420 C.3    75  ALA75       0.1728
     87  C          6.9220  -19.0350   10.8750 C.2    75  ALA75       0.2616
     88  O          6.6150  -18.7960   12.0180 O.2    75  ALA75      -0.2715
     89  CB         7.4130  -21.4610   10.9070 C.3    75  ALA75       0.0334
     90  N          7.6050  -18.1990   10.0840 N.am   76  ILE76      -0.1963
     91  CA         8.0480  -16.8750   10.5810 C.3    76  ILE76       0.1727
     92  C          7.2560  -15.7420    9.9680 C.2    76  ILE76       0.2616
     93  O          7.6000  -14.5620   10.1190 O.2    76  ILE76      -0.2715
     94  CB         9.5540  -16.6220   10.3570 C.3    76  ILE76       0.0290
     95  CG1        9.9070  -16.5780    8.8740 C.3    76  ILE76       0.0022
     96  CG2       10.3690  -17.6700   11.1150 C.3    76  ILE76       0.0023
     97  CD1       11.3730  -16.0440    8.5640 C.3    76  ILE76       0.0001
     98  N          6.1340  -16.0820    9.3470 N.am   77  CYS77      -0.1954
     99  CA         5.2390  -15.0720    8.8110 C.3    77  CYS77       0.1843
    100  C          3.8570  -15.3290    9.3620 C.2    77  CYS77       0.2625
    101  O          3.1250  -16.1730    8.8390 O.2    77  CYS77      -0.2714
    102  CB         5.2060  -15.1470    7.2870 C.3    77  CYS77       0.0997
    103  SG         6.7650  -14.9680    6.5110 S.3    77  CYS77      -0.0797
    104  N          3.4590  -14.6300   10.3970 N.am   78  ALA78      -0.1963
    105  CA         2.1770  -14.9110   11.0350 C.3    78  ALA78       0.1728
    106  C          2.0660  -16.3480   11.5510 C.2    78  ALA78       0.2616
    107  O          1.0010  -16.9620   11.5670 O.2    78  ALA78      -0.2715
    108  CB         1.0040  -14.6100   10.0960 C.3    78  ALA78       0.0334
    109  N          3.1930  -16.8670   12.0000 N.am   79  ALA79      -0.1977
    110  CA         3.2410  -18.1450   12.7130 C.3    79  ALA79       0.1597
    111  C          2.4530  -19.2210   11.9930 C.2    79  ALA79       0.2287
    112  O          1.6170  -19.9340   12.5770 O.2    79  ALA79      -0.2864
    113  CB         2.7230  -17.9600   14.1290 C.3    79  ALA79       0.0319
    114  N          0.0770  -19.1580    9.8400 N.3    81  HIS81      -0.1241
    115  CA        -1.3310  -18.9560    9.5250 C.3    81  HIS81       0.1621
    116  C         -1.5070  -18.5860    8.0500 C.2    81  HIS81       0.2264
    117  O         -0.5740  -18.1160    7.4140 O.2    81  HIS81      -0.2867
    118  CB        -1.8930  -17.7910   10.3600 C.3    81  HIS81       0.0745
    119  CG        -2.1710  -18.1450   11.7860 C.ar   81  HIS81       0.0817
    120  ND1       -3.4520  -18.3530   12.2380 N.ar   81  HIS81      -0.2268
    121  CD2       -1.3670  -18.2780   12.8630 C.ar   81  HIS81       0.1154
    122  CE1       -3.4200  -18.6480   13.5280 C.ar   81  HIS81       0.1986
    123  NE2       -2.1660  -18.6210   13.9300 N.ar   81  HIS81      -0.2212
    124  N         -4.2780  -12.4980    8.3260 N.3    85  TYR85      -0.1241
    125  CA        -3.9670  -12.7230    9.7440 C.3    85  TYR85       0.1605
    126  C         -4.0320  -11.3790   10.4540 C.2    85  TYR85       0.2264
    127  O         -3.4010  -10.4280   10.0400 O.2    85  TYR85      -0.2867
    128  CB        -2.5920  -13.3360    9.9000 C.3    85  TYR85       0.0534
    129  CG        -2.2680  -13.5240   11.3530 C.ar   85  TYR85      -0.0201
    130  CD1       -2.8290  -14.5790   12.0790 C.ar   85  TYR85      -0.0009
    131  CD2       -1.4840  -12.6170   12.0210 C.ar   85  TYR85      -0.0009
    132  CE1       -2.6090  -14.7250   13.4410 C.ar   85  TYR85       0.0417
    133  CE2       -1.2380  -12.7510   13.3910 C.ar   85  TYR85       0.0417
    134  CZ        -1.8110  -13.8120   14.0760 C.ar   85  TYR85       0.1957
    135  OH        -1.6120  -14.0120   15.4290 O.3    85  TYR85      -0.2866
    136  N         10.1030   -3.3370   -6.5130 N.3   131  ARG131     -0.1245
    137  CA        10.8790   -4.5440   -6.2250 C.3   131  ARG131      0.1563
    138  C         11.9180   -4.8620   -7.2550 C.2   131  ARG131      0.2260
    139  O         12.9400   -5.4170   -6.9120 O.2   131  ARG131     -0.2867
    140  CB         9.9270   -5.7440   -6.0770 C.3   131  ARG131      0.0307
    141  CG        10.5210   -7.0080   -5.4660 C.3   131  ARG131      0.0489
    142  CD         9.5070   -8.1360   -5.5800 C.3   131  ARG131      0.2205
    143  NE        10.0280   -9.3790   -5.0500 N.pl3 131  ARG131     -0.0865
    144  CZ         9.3200  -10.5040   -4.9500 C.cat 131  ARG131      0.5346
    145  NH1        8.0530  -10.5510   -5.3510 N.pl3 131  ARG131      0.1354
    146  NH2        9.9000  -11.6030   -4.4560 N.pl3 131  ARG131      0.1354
@<TRIPOS>BOND
     1   138   139    2
     2   138   137    1
     3   136   137    1
     4   137   140    1
     5   140   141    1
     6   142   141    1
     7   142   143    1
     8   145   144    1
     9   143   144    2
    10   144   146    1
    11    28    26    1
    12    22    23    1
    13    23    26    1
    14    23    24    1
    15     4     3    2
    16     1     2    1
    17    26    27    1
    18    68    69    2
    19    68    67    1
    20    24    29   am
    21    24    25    2
    22     3     2    1
    23    75    74    1
    24     5     2    1
    25     5     6    1
    26    76    74    1
    27    67    66    1
    28    67    70    1
    29     8     7   ar
    30    29    30    1
    31    74    73    2
    32     7     6    1
    33     7     9   ar
    34    84    82   am
    35    73    72    1
    36    70    71    1
    37    33    30    1
    38    33    34    1
    39    30    31    1
    40    40    39    1
    41    40    41    1
    42    72    71    1
    43    81    82    1
    44    81    78    1
    45    82    83    2
    46    39    36    1
    47    35    31   am
    48    35    36    1
    49    31    32    2
    50    60    61    2
    51    60    59    1
    52    77    78    1
    53    41    42    1
    54   103    34    1
    55   103   102    1
    56    78    79    1
    57    64    62    1
    58    42    43    2
    59    38    37    2
    60    36    37    1
    61    59    62    1
    62    59    58    1
    63   102    99    1
    64   117   116    2
    65    37    46   am
    66    43    45    1
    67    43    44    1
    68    62    63    1
    69   116   115    1
    70    79    80    2
    71    79    85   am
    72   124   125    1
    73    97    95    1
    74    99    98    1
    75    99   100    1
    76   101   100    2
    77    95    94    1
    78    49    48    2
    79    63    65    1
    80    85    86    1
    81    46    47    1
    82    48    47    1
    83    98    92   am
    84   100   104   am
    85   115   114    1
    86   115   118    1
    87    47    50    1
    88   125   128    1
    89   125   126    1
    90   128   129    1
    91    92    93    2
    92    92    91    1
    93   127   126    2
    94    19    17   ar
    95    19    20   ar
    96    90    91    1
    97    90    87   am
    98   108   105    1
    99    21    20    1
   100    10    11    1
   101    86    87    1
   102    86    89    1
   103    94    91    1
   104    94    96    1
   105   118   119    1
   106   104   105    1
   107    17    15   ar
   108    20    18   ar
   109    11    12    1
   110    11    14    1
   111    87    88    2
   112   105   106    1
   113    50    51    1
   114   129   131   ar
   115   129   130   ar
   116    15    16   ar
   117    15    14    1
   118    12    13    2
   119    18    16   ar
   120   106   107    2
   121   106   109   am
   122   119   120   ar
   123   119   121   ar
   124    51    53   ar
   125    51    52   ar
   126    53    55   ar
   127   111   112    2
   128   111   110    1
   129   109   110    1
   130   131   133   ar
   131   130   132   ar
   132   120   122   ar
   133    52    54   ar
   134    55    56   ar
   135   110   113    1
   136    54    56   ar
   137   121   123   ar
   138    56    57    1
   139   133   134   ar
   140   132   134   ar
   141   122   123   ar
   142   134   135    1
