@<TRIPOS>MOLECULE
tmp/2jcrA00.pdb
 155 151 0 0 0
SMALL
GASTEIGER

@<TRIPOS>ATOM
      1  N         12.1080   -1.6260    7.9640 N.3    22  ARG22      -0.1231
      2  CA        10.9930   -2.4560    8.3910 C.3    22  ARG22       0.1694
      3  C         10.2690   -1.8880    9.6220 C.2    22  ARG22       0.2592
      4  O         10.9020   -1.5860   10.6030 O.2    22  ARG22      -0.2718
      5  CB        11.5780   -3.8220    8.7150 C.3    22  ARG22       0.0321
      6  CG        10.6460   -4.8700    9.2730 C.3    22  ARG22       0.0489
      7  CD        11.3670   -6.1810    9.1540 C.3    22  ARG22       0.2205
      8  NE        10.7140   -7.2860    9.8320 N.pl3  22  ARG22      -0.0865
      9  CZ        11.0820   -7.7760   11.0110 C.cat  22  ARG22       0.5346
     10  NH1       12.0820   -7.2420   11.6970 N.pl3  22  ARG22       0.1354
     11  NH2       10.4230   -8.8100   11.5200 N.pl3  22  ARG22       0.1354
     12  N          8.9470   -1.7460    9.5530 N.am   23  TYR23      -0.1976
     13  CA         8.1140   -1.3680   10.7100 C.3    23  TYR23       0.1639
     14  C          8.4490   -0.0210   11.3480 C.2    23  TYR23       0.2290
     15  O          8.6760    0.0570   12.5490 O.2    23  TYR23      -0.2864
     16  CB         8.1640   -2.4540   11.8020 C.3    23  TYR23       0.0560
     17  CG         7.6740   -3.8310   11.3840 C.ar   23  TYR23      -0.0198
     18  CD1        8.1960   -4.9760   11.9790 C.ar   23  TYR23      -0.0009
     19  CD2        6.6860   -3.9880   10.4140 C.ar   23  TYR23      -0.0009
     20  CE1        7.7490   -6.2360   11.6190 C.ar   23  TYR23       0.0417
     21  CE2        6.2360   -5.2400   10.0430 C.ar   23  TYR23       0.0417
     22  CZ         6.7650   -6.3630   10.6410 C.ar   23  TYR23       0.1957
     23  OH         6.3190   -7.6130   10.2650 O.3    23  TYR23      -0.2866
     24  N          2.2960  -11.1240    1.9530 N.3    57  THR57      -0.1203
     25  CA         3.5670  -10.5840    2.4390 C.3    57  THR57       0.1994
     26  C          3.9280  -11.3290    3.7220 C.2    57  THR57       0.2618
     27  O          3.0980  -12.0440    4.2680 O.2    57  THR57      -0.2717
     28  CB         3.4560   -9.0720    2.8110 C.3    57  THR57       0.1784
     29  OG1        2.8390   -8.9480    4.0940 O.3    57  THR57      -0.2211
     30  CG2        2.6540   -8.2620    1.7590 C.3    57  THR57       0.0376
     31  N          5.1410  -11.1010    4.2220 N.am   58  CYS58      -0.1955
     32  CA         5.5380  -11.5430    5.5580 C.3    58  CYS58       0.1843
     33  C          5.8040  -10.3270    6.4480 C.2    58  CYS58       0.2625
     34  O          6.8110  -10.2790    7.1760 O.2    58  CYS58      -0.2714
     35  CB         6.7830  -12.4180    5.4680 C.3    58  CYS58       0.0997
     36  SG         7.1330  -13.3070    6.9710 S.3    58  CYS58      -0.0797
     37  N          4.8710   -9.3670    6.3910 N.am   59  ARG59      -0.1963
     38  CA         4.9760   -8.0730    7.0760 C.3    59  ARG59       0.1729
     39  C          3.6430   -7.6040    7.6340 C.2    59  ARG59       0.2616
     40  O          2.6270   -7.5970    6.9310 O.2    59  ARG59      -0.2715
     41  CB         5.4810   -6.9990    6.1210 C.3    59  ARG59       0.0348
     42  CG         6.9150   -7.1640    5.7120 C.3    59  ARG59       0.0492
     43  CD         7.8700   -7.0570    6.8930 C.3    59  ARG59       0.2205
     44  NE         9.2530   -6.9930    6.4290 N.pl3  59  ARG59      -0.0865
     45  CZ         9.8190   -5.9040    5.9130 C.cat  59  ARG59       0.5346
     46  NH1       11.0880   -5.9460    5.5000 N.pl3  59  ARG59       0.1354
     47  NH2        9.1240   -4.7760    5.8200 N.pl3  59  ARG59       0.1354
     48  N          3.6600   -7.2230    8.9080 N.am   60  TYR60      -0.1974
     49  CA         2.5150   -6.6080    9.5580 C.3    60  TYR60       0.1639
     50  C          2.3560   -5.2070    8.9980 C.2    60  TYR60       0.2290
     51  O          3.3370   -4.4940    8.7990 O.2    60  TYR60      -0.2864
     52  CB         2.7080   -6.5580   11.0760 C.3    60  TYR60       0.0560
     53  CG         2.5640   -7.9100   11.7350 C.ar   60  TYR60      -0.0198
     54  CD1        3.6820   -8.6320   12.1510 C.ar   60  TYR60      -0.0009
     55  CD2        1.3130   -8.4750   11.9140 C.ar   60  TYR60      -0.0009
     56  CE1        3.5460   -9.8930   12.7410 C.ar   60  TYR60       0.0417
     57  CE2        1.1660   -9.7240   12.4980 C.ar   60  TYR60       0.0417
     58  CZ         2.2820  -10.4200   12.9140 C.ar   60  TYR60       0.1957
     59  OH         2.1220  -11.6560   13.4780 O.3    60  TYR60      -0.2866
     60  N         -1.5400   -9.2220    8.3000 N.3    69  ILE69      -0.1245
     61  CA        -0.6520   -9.8240    7.2920 C.3    69  ILE69       0.1561
     62  C         -1.5190  -10.7390    6.4160 C.2    69  ILE69       0.2260
     63  O         -2.1760  -11.6410    6.9440 O.2    69  ILE69      -0.2867
     64  CB         0.4500  -10.7500    7.8790 C.3    69  ILE69       0.0252
     65  CG1        1.1980  -10.1040    9.0340 C.3    69  ILE69       0.0019
     66  CG2        1.4510  -11.1460    6.8030 C.3    69  ILE69       0.0019
     67  CD1        2.4400  -10.8940    9.4620 C.3    69  ILE69       0.0001
     68  N         -1.7720  -13.8590    4.1700 N.3    71  ARG71      -0.1245
     69  CA        -1.0150  -15.0910    3.9750 C.3    71  ARG71       0.1563
     70  C         -1.7560  -16.0660    3.0640 C.2    71  ARG71       0.2260
     71  O         -2.8900  -16.4360    3.3450 O.2    71  ARG71      -0.2867
     72  CB        -0.7650  -15.7480    5.3280 C.3    71  ARG71       0.0307
     73  CG         0.1930  -14.9760    6.2580 C.3    71  ARG71       0.0489
     74  CD         1.5480  -14.7200    5.6030 C.3    71  ARG71       0.2205
     75  NE         2.2140  -15.9450    5.1460 N.pl3  71  ARG71      -0.0865
     76  CZ         3.2010  -15.9890    4.2510 C.cat  71  ARG71       0.5346
     77  NH1        3.6350  -14.8830    3.6700 N.pl3  71  ARG71       0.1354
     78  NH2        3.7570  -17.1540    3.9230 N.pl3  71  ARG71       0.1354
     79  N          3.6590  -20.2630    6.5270 N.3    75  ASN75      -0.1225
     80  CA         5.0670  -20.1530    6.8890 C.3    75  ASN75       0.1785
     81  C          5.1300  -19.9970    8.4070 C.2    75  ASN75       0.2597
     82  O          4.3250  -19.2640    8.9900 O.2    75  ASN75      -0.2718
     83  CB         5.6930  -18.9530    6.1790 C.3    75  ASN75       0.1169
     84  CG         7.2040  -18.9110    6.2920 C.2    75  ASN75       0.2627
     85  OD1        7.7600  -19.0010    7.3830 O.2    75  ASN75      -0.2716
     86  ND2        7.8710  -18.7240    5.1710 N.am   75  ASN75      -0.0877
     87  N          6.0820  -20.6910    9.0390 N.am   76  ALA76      -0.1966
     88  CA         6.2120  -20.6830   10.4960 C.3    76  ALA76       0.1728
     89  C          6.6100  -19.3140   11.0530 C.2    76  ALA76       0.2616
     90  O          6.2730  -18.9930   12.1990 O.2    76  ALA76      -0.2715
     91  CB         7.2060  -21.7640   10.9640 C.3    76  ALA76       0.0334
     92  N          7.3050  -18.5100   10.2510 N.am   77  ILE77      -0.1963
     93  CA         7.7370  -17.1660   10.6930 C.3    77  ILE77       0.1727
     94  C          6.9390  -16.0140   10.0730 C.2    77  ILE77       0.2616
     95  O          7.3690  -14.8570   10.1620 O.2    77  ILE77      -0.2715
     96  CB         9.2470  -16.9560   10.4540 C.3    77  ILE77       0.0290
     97  CG1        9.6120  -17.1330    8.9740 C.3    77  ILE77       0.0022
     98  CG2       10.0250  -17.9510   11.2930 C.3    77  ILE77       0.0023
     99  CD1       10.9420  -16.5140    8.5720 C.3    77  ILE77       0.0001
    100  N          5.7800  -16.3250    9.4800 N.am   78  CYS78      -0.1954
    101  CA         4.8670  -15.3230    8.9120 C.3    78  CYS78       0.1843
    102  C          3.4220  -15.5510    9.3750 C.2    78  CYS78       0.2625
    103  O          2.6930  -16.3640    8.7970 O.2    78  CYS78      -0.2714
    104  CB         4.9230  -15.3480    7.3810 C.3    78  CYS78       0.0997
    105  SG         6.5460  -15.1970    6.6020 S.3    78  CYS78      -0.0797
    106  N          3.0040  -14.8210   10.4090 N.am   79  ALA79      -0.1963
    107  CA         1.7270  -15.0530   11.0960 C.3    79  ALA79       0.1728
    108  C          1.6010  -16.4820   11.6360 C.2    79  ALA79       0.2616
    109  O          0.5230  -17.0540   11.6280 O.2    79  ALA79      -0.2715
    110  CB         0.5330  -14.7030   10.1910 C.3    79  ALA79       0.0334
    111  N          2.7120  -17.0440   12.1000 N.am   80  ALA80      -0.1977
    112  CA         2.7130  -18.3110   12.8320 C.3    80  ALA80       0.1597
    113  C          1.9110  -19.4090   12.1380 C.2    80  ALA80       0.2287
    114  O          1.0400  -20.0180   12.7570 O.2    80  ALA80      -0.2864
    115  CB         2.1940  -18.0910   14.2400 C.3    80  ALA80       0.0319
    116  N         -0.3870  -19.2200    9.8350 N.3    82  HIS82      -0.1241
    117  CA        -1.7650  -18.9090    9.4760 C.3    82  HIS82       0.1621
    118  C         -1.8650  -18.5510    8.0030 C.2    82  HIS82       0.2264
    119  O         -0.8940  -18.0870    7.3900 O.2    82  HIS82      -0.2867
    120  CB        -2.3040  -17.7510   10.3160 C.3    82  HIS82       0.0745
    121  CG        -2.6300  -18.1320   11.7230 C.ar   82  HIS82       0.0817
    122  ND1       -3.9070  -18.4690   12.1180 N.ar   82  HIS82      -0.2268
    123  CD2       -1.8510  -18.2460   12.8230 C.ar   82  HIS82       0.1154
    124  CE1       -3.8990  -18.7740   13.4040 C.ar   82  HIS82       0.1986
    125  NE2       -2.6630  -18.6450   13.8550 N.ar   82  HIS82      -0.2212
    126  N         -4.5430  -12.4230    8.3450 N.3    86  TYR86      -0.1241
    127  CA        -4.3010  -12.5780    9.7710 C.3    86  TYR86       0.1605
    128  C         -4.2560  -11.2200   10.4480 C.2    86  TYR86       0.2264
    129  O         -3.4790  -10.3510   10.0630 O.2    86  TYR86      -0.2867
    130  CB        -3.0010  -13.3290   10.0620 C.3    86  TYR86       0.0534
    131  CG        -2.7530  -13.4990   11.5450 C.ar   86  TYR86      -0.0201
    132  CD1       -3.3660  -14.5280   12.2640 C.ar   86  TYR86      -0.0009
    133  CD2       -1.9240  -12.6240   12.2410 C.ar   86  TYR86      -0.0009
    134  CE1       -3.1560  -14.6790   13.6370 C.ar   86  TYR86       0.0417
    135  CE2       -1.7090  -12.7680   13.6100 C.ar   86  TYR86       0.0417
    136  CZ        -2.3260  -13.7960   14.3020 C.ar   86  TYR86       0.1957
    137  OH        -2.1070  -13.9350   15.6660 O.3    86  TYR86      -0.2866
    138  N         -2.0010   -9.1260   19.6610 N.3    90  THR90      -0.1218
    139  CA        -1.2760   -8.6980   20.8550 C.3    90  THR90       0.1862
    140  C          0.1150   -8.1900   20.5050 C.2    90  THR90       0.2287
    141  O          0.9440   -8.9430   20.0040 O.2    90  THR90      -0.2866
    142  CB        -1.1350   -9.8480   21.8870 C.3    90  THR90       0.1770
    143  OG1       -2.4270  -10.2390   22.3690 O.3    90  THR90      -0.2211
    144  CG2       -0.2790   -9.4090   23.0720 C.3    90  THR90       0.0375
    145  N         10.2490   -3.2440   -6.5880 N.3   132  ARG132     -0.1245
    146  CA        10.9530   -4.5010   -6.3340 C.3   132  ARG132      0.1563
    147  C         12.0420   -4.8320   -7.3790 C.2   132  ARG132      0.2260
    148  O         13.0450   -5.4850   -7.0450 O.2   132  ARG132     -0.2867
    149  CB         9.9680   -5.6670   -6.1920 C.3   132  ARG132      0.0307
    150  CG        10.5630   -6.8450   -5.4470 C.3   132  ARG132      0.0489
    151  CD         9.6250   -8.0290   -5.2660 C.3   132  ARG132      0.2205
    152  NE        10.3950   -9.1820   -4.7840 N.pl3 132  ARG132     -0.0865
    153  CZ         9.9240  -10.4200   -4.6360 C.cat 132  ARG132      0.5346
    154  NH1        8.6500  -10.7120   -4.9210 N.pl3 132  ARG132      0.1354
    155  NH2       10.7410  -11.3770   -4.1860 N.pl3 132  ARG132      0.1354
@<TRIPOS>BOND
     1   147   148    2
     2   147   146    1
     3   145   146    1
     4   146   149    1
     5   149   150    1
     6   150   151    1
     7   151   152    1
     8   154   153    1
     9   152   153    2
    10   153   155    1
    11    30    28    1
    12    24    25    1
    13    25    28    1
    14    25    26    1
    15    28    29    1
    16    70    71    2
    17    70    69    1
    18    77    76    1
    19    26    31   am
    20    26    27    2
    21    78    76    1
    22    69    68    1
    23    69    72    1
    24    31    32    1
    25    76    75    2
    26    75    74    1
    27    86    84   am
    28    72    73    1
    29    35    32    1
    30    35    36    1
    31    46    45    1
    32    32    33    1
    33    74    73    1
    34    42    41    1
    35    42    43    1
    36    47    45    1
    37    45    44    2
    38    41    38    1
    39    83    84    1
    40    83    80    1
    41    84    85    2
    42    37    33   am
    43    37    38    1
    44    62    63    2
    45    62    61    1
    46    44    43    1
    47    33    34    2
    48    79    80    1
    49   105    36    1
    50   105   104    1
    51    66    64    1
    52    80    81    1
    53    40    39    2
    54    38    39    1
    55    61    64    1
    56    61    60    1
    57   104   101    1
    58   119   118    2
    59    39    48   am
    60    64    65    1
    61     1     2    1
    62   118   117    1
    63   126   127    1
    64     2     5    1
    65     2     3    1
    66    81    82    2
    67    81    87   am
    68    99    97    1
    69     5     6    1
    70   103   102    2
    71    51    50    2
    72    48    49    1
    73   101   102    1
    74   101   100    1
    75    97    96    1
    76    50    49    1
    77    65    67    1
    78    87    88    1
    79     7     6    1
    80     7     8    1
    81   102   106   am
    82   117   116    1
    83   117   120    1
    84   100    94   am
    85    12     3   am
    86    12    13    1
    87    49    52    1
    88     3     4    2
    89   127   130    1
    90   127   128    1
    91     8     9    2
    92    21    19   ar
    93    21    22   ar
    94   130   131    1
    95   129   128    2
    96    94    95    2
    97    94    93    1
    98   110   107    1
    99    92    93    1
   100    92    89   am
   101    23    22    1
   102   120   121    1
   103   106   107    1
   104    19    17   ar
   105    96    93    1
   106    96    98    1
   107    88    91    1
   108    88    89    1
   109    22    20   ar
   110    13    14    1
   111    13    16    1
   112     9    11    1
   113     9    10    1
   114    89    90    2
   115    52    53    1
   116   107   108    1
   117    14    15    2
   118    17    16    1
   119    17    18   ar
   120   131   133   ar
   121   131   132   ar
   122    20    18   ar
   123   109   108    2
   124   108   111   am
   125   121   122   ar
   126   121   123   ar
   127    53    55   ar
   128    53    54   ar
   129    55    57   ar
   130   111   112    1
   131   122   124   ar
   132   113   114    2
   133   113   112    1
   134    54    56   ar
   135   133   135   ar
   136   132   134   ar
   137    57    58   ar
   138    56    58   ar
   139   123   125   ar
   140   112   115    1
   141    58    59    1
   142   124   125   ar
   143   135   136   ar
   144   134   136   ar
   145   136   137    1
   146   138   139    1
   147   141   140    2
   148   140   139    1
   149   139   142    1
   150   142   143    1
   151   142   144    1
