@<TRIPOS>MOLECULE
tmp/2jcvA00.pdb
 148 138 0 0 0
SMALL
GASTEIGER

@<TRIPOS>ATOM
      1  N         12.0820    8.6310   39.0550 N.3   118  LYS118     -0.1245
      2  CA        13.3160    8.0300   39.5640 C.3   118  LYS118      0.1561
      3  C         14.2830    7.6190   38.4510 C.2   118  LYS118      0.2260
      4  O         15.4820    7.5790   38.6750 O.2   118  LYS118     -0.2867
      5  CB        13.0180    6.8590   40.5020 C.3   118  LYS118      0.0271
      6  CG        12.2580    5.7110   39.8540 C.3   118  LYS118      0.0035
      7  CD        12.0820    4.5580   40.8370 C.3   118  LYS118      0.0206
      8  CE        10.9120    3.7140   40.4380 C.3   118  LYS118      0.1093
      9  NZ         9.6080    4.4570   40.6420 N.3   118  LYS118     -0.1314
     10  N          8.0820    8.7030   45.6120 N.3   141  ASP141     -0.1225
     11  CA         7.5690    7.3340   45.7400 C.3   141  ASP141      0.1805
     12  C          7.4190    6.9680   47.2320 C.2   141  ASP141      0.2598
     13  O          8.1220    7.5140   48.1010 O.2   141  ASP141     -0.2718
     14  CB         8.4730    6.3440   45.0230 C.3   141  ASP141      0.1424
     15  CG         9.8460    6.2820   45.6330 C.2   141  ASP141      0.3668
     16  OD1       10.0240    5.5500   46.6280 O.co2 141  ASP141     -0.2456
     17  OD2       10.7540    6.9740   45.1270 O.co2 141  ASP141     -0.2456
     18  N          6.4900    6.0610   47.5180 N.am  142  SER142     -0.1938
     19  CA         6.1710    5.7120   48.8960 C.3   142  SER142      0.2055
     20  C          7.3580    5.1140   49.6430 C.2   142  SER142      0.2642
     21  O          7.5360    5.3670   50.8360 O.2   142  SER142     -0.2714
     22  CB         4.9830    4.7490   48.9380 C.3   142  SER142      0.2130
     23  OG         3.8110    5.4400   48.5670 O.3   142  SER142     -0.2179
     24  N          8.1700    4.3350   48.9310 N.am  143  GLU143     -0.1976
     25  CA         9.3170    3.6560   49.5300 C.3   143  GLU143      0.1602
     26  C         10.3540    4.6150   50.1210 C.2   143  GLU143      0.2287
     27  O         10.7650    4.4860   51.2820 O.2   143  GLU143     -0.2864
     28  CB         9.9730    2.7120   48.5150 C.3   143  GLU143      0.0415
     29  CG         9.1230    1.4930   48.1650 C.3   143  GLU143      0.1163
     30  CD         7.9510    1.8060   47.2350 C.2   143  GLU143      0.3649
     31  OE1        7.9390    2.8570   46.5510 O.co2 143  GLU143     -0.2457
     32  OE2        7.0170    0.9900   47.1870 O.co2 143  GLU143     -0.2457
     33  N         10.0690   -2.6100   50.8850 N.3   165  THR165     -0.1203
     34  CA         8.9690   -3.5360   50.6220 C.3   165  THR165      0.1994
     35  C          8.5390   -3.4750   49.1620 C.2   165  THR165      0.2618
     36  O          8.5650   -2.4070   48.5410 O.2   165  THR165     -0.2717
     37  CB         7.7450   -3.2930   51.5420 C.3   165  THR165      0.1784
     38  OG1        7.3240   -1.9330   51.4360 O.3   165  THR165     -0.2211
     39  CG2        8.0860   -3.5900   52.9890 C.3   165  THR165      0.0376
     40  N          8.1550   -4.6350   48.6330 N.am  166  ALA166     -0.1965
     41  CA         7.6340   -4.7710   47.2770 C.3   166  ALA166      0.1728
     42  C          6.2830   -5.4710   47.3530 C.2   166  ALA166      0.2617
     43  O          6.1110   -6.4040   48.1420 O.2   166  ALA166     -0.2715
     44  CB         8.6220   -5.6040   46.4070 C.3   166  ALA166      0.0334
     45  N          5.3220   -5.0310   46.5400 N.am  167  SER167     -0.1936
     46  CA         4.0020   -5.6750   46.5290 C.3   167  SER167      0.2055
     47  C          4.1170   -7.0960   45.9700 C.2   167  SER167      0.2643
     48  O          3.4150   -8.0140   46.4200 O.2   167  SER167     -0.2714
     49  CB         2.9870   -4.8560   45.7280 C.3   167  SER167      0.2130
     50  OG         3.2200   -4.9970   44.3370 O.3   167  SER167     -0.2179
     51  N          5.0310   -7.2720   45.0160 N.am  168  GLY168     -0.1954
     52  CA         5.2540   -8.5740   44.3850 C.3   168  GLY168      0.1869
     53  C          4.6060   -8.6390   43.0150 C.2   168  GLY168      0.2309
     54  O          4.8960   -9.5390   42.2140 O.2   168  GLY168     -0.2863
     55  N         -2.4780   -3.9290   38.5200 N.3   190  HIS190     -0.1241
     56  CA        -1.7170   -4.0340   39.7620 C.3   190  HIS190      0.1621
     57  C         -2.6570   -4.3010   40.9500 C.2   190  HIS190      0.2264
     58  O         -3.7180   -3.6780   41.0480 O.2   190  HIS190     -0.2867
     59  CB        -0.8810   -2.7710   39.9810 C.3   190  HIS190      0.0745
     60  CG         0.1960   -2.9330   41.0060 C.ar  190  HIS190      0.0817
     61  ND1       -0.0150   -2.7010   42.3490 N.ar  190  HIS190     -0.2268
     62  CD2        1.4910   -3.3120   40.8870 C.ar  190  HIS190      0.1154
     63  CE1        1.1050   -2.9260   43.0130 C.ar  190  HIS190      0.1986
     64  NE2        2.0350   -3.2990   42.1500 N.ar  190  HIS190     -0.2212
     65  N         -1.7740   -0.7230   43.7350 N.3   193  TRP193     -0.1241
     66  CA        -1.5810    0.6640   43.3130 C.3   193  TRP193      0.1605
     67  C         -2.1950    0.9320   41.9550 C.2   193  TRP193      0.2264
     68  O         -2.2240    0.0510   41.0890 O.2   193  TRP193     -0.2867
     69  CB        -0.0910    1.0260   43.2430 C.3   193  TRP193      0.0550
     70  CG         0.6560    0.9140   44.5440 C.ar  193  TRP193      0.0003
     71  CD1        1.3350   -0.1700   45.0020 C.ar  193  TRP193      0.0946
     72  CD2        0.8170    1.9400   45.5340 C.ar  193  TRP193      0.0152
     73  NE1        1.9030    0.1050   46.2200 N.ar  193  TRP193     -0.2442
     74  CE2        1.5990    1.3930   46.5750 C.ar  193  TRP193      0.0810
     75  CE3        0.3640    3.2650   45.6490 C.ar  193  TRP193      0.0012
     76  CZ2        1.9460    2.1240   47.7170 C.ar  193  TRP193      0.0191
     77  CZ3        0.7020    3.9890   46.7830 C.ar  193  TRP193      0.0001
     78  CH2        1.4920    3.4220   47.8010 C.ar  193  TRP193      0.0015
     79  N         -1.4330    3.2080   38.8370 N.3   195  MET195     -0.1245
     80  CA        -0.2840    3.9520   38.3030 C.3   195  MET195      0.1570
     81  C         -0.3670    4.0420   36.7860 C.2   195  MET195      0.2261
     82  O         -1.1930    3.3690   36.1600 O.2   195  MET195     -0.2867
     83  CB         1.0450    3.2530   38.6850 C.3   195  MET195      0.0387
     84  CG         1.2360    3.0030   40.1790 C.3   195  MET195      0.0595
     85  SD         2.6710    2.0110   40.6540 S.3   195  MET195     -0.1393
     86  CE         2.2330    0.3940   40.0360 C.3   195  MET195      0.0692
     87  N          5.0750    2.1790   35.1580 N.3   199  ASN199     -0.1240
     88  CA         5.3080    1.7730   36.5430 C.3   199  ASN199      0.1653
     89  C          4.5320    0.5090   36.8800 C.2   199  ASN199      0.2266
     90  O          5.0100   -0.3260   37.6480 O.2   199  ASN199     -0.2867
     91  CB         4.9810    2.8900   37.5440 C.3   199  ASN199      0.1155
     92  CG         5.6420    2.6630   38.9140 C.2   199  ASN199      0.2627
     93  OD1        5.8260    1.5180   39.3730 O.2   199  ASN199     -0.2716
     94  ND2        5.9980    3.7460   39.5700 N.am  199  ASN199     -0.0877
     95  N          6.4630   -2.8590   37.9900 N.3   203  SER203     -0.1217
     96  CA         6.0680   -3.5420   39.2300 C.3   203  SER203      0.1889
     97  C          5.7330   -5.0110   39.0510 C.2   203  SER203      0.2288
     98  O          5.9000   -5.8100   39.9760 O.2   203  SER203     -0.2866
     99  CB         4.8740   -2.8390   39.8810 C.3   203  SER203      0.2089
    100  OG         5.2750   -1.5880   40.4000 O.3   203  SER203     -0.2183
    101  N          9.1990   -6.6120   38.4870 N.3   206  LEU206     -0.1245
    102  CA        10.1210   -6.2850   39.6010 C.3   206  LEU206      0.1561
    103  C         11.2750   -5.3500   39.2270 C.2   206  LEU206      0.2260
    104  O         12.1680   -5.0950   40.0350 O.2   206  LEU206     -0.2867
    105  CB        10.6460   -7.5500   40.3230 C.3   206  LEU206      0.0270
    106  CG         9.7980   -8.1060   41.4770 C.3   206  LEU206      0.0019
    107  CD1        9.8840   -7.1990   42.7230 C.3   206  LEU206      0.0001
    108  CD2        8.3290   -8.3290   41.0570 C.3   206  LEU206      0.0001
    109  N         10.7900   -2.1930   38.7110 N.3   208  ASN208     -0.1225
    110  CA        10.5230   -1.0620   39.5880 C.3   208  ASN208      0.1785
    111  C         11.2880   -1.1180   40.9080 C.2   208  ASN208      0.2597
    112  O         11.8920   -0.1240   41.3200 O.2   208  ASN208     -0.2718
    113  CB         9.0350   -0.8980   39.8980 C.3   208  ASN208      0.1169
    114  CG         8.7520    0.4280   40.5590 C.2   208  ASN208      0.2627
    115  OD1        9.1040    1.4730   40.0200 O.2   208  ASN208     -0.2716
    116  ND2        8.1730    0.3970   41.7470 N.am  208  ASN208     -0.0877
    117  N         11.2660   -2.2840   41.5570 N.am  209  LYS209     -0.1980
    118  CA        12.0190   -2.4730   42.7960 C.3   209  LYS209      0.1596
    119  C         13.5200   -2.3910   42.5800 C.2   209  LYS209      0.2287
    120  O         14.2240   -1.8430   43.4170 O.2   209  LYS209     -0.2864
    121  CB        11.6260   -3.7640   43.5370 C.3   209  LYS209      0.0298
    122  CG        11.7420   -3.6470   45.0660 C.3   209  LYS209      0.0038
    123  CD        10.9520   -2.4610   45.6600 C.3   209  LYS209      0.0206
    124  CE         9.4800   -2.4830   45.2260 C.3   209  LYS209      0.1093
    125  NZ         8.6530   -1.4600   45.9310 N.3   209  LYS209     -0.1314
    126  N         14.3400    1.2060   42.3350 N.3   212  GLU212     -0.1245
    127  CA        14.2390    1.7670   43.6840 C.3   212  GLU212      0.1567
    128  C         15.4410    1.4430   44.5850 C.2   212  GLU212      0.2260
    129  O         15.8350    2.2670   45.4110 O.2   212  GLU212     -0.2867
    130  CB        12.9370    1.3110   44.3470 C.3   212  GLU212      0.0388
    131  CG        11.7070    1.9140   43.7020 C.3   212  GLU212      0.1160
    132  CD        10.4870    1.8330   44.5790 C.2   212  GLU212      0.3649
    133  OE1        9.8400    2.8830   44.7720 O.co2 212  GLU212     -0.2457
    134  OE2       10.1740    0.7320   45.0780 O.co2 212  GLU212     -0.2457
    135  N          0.9810   -3.8920   50.6060 N.3   235  SER235     -0.1217
    136  CA         1.5130   -2.5530   50.3050 C.3   235  SER235      0.1889
    137  C          1.0750   -1.4850   51.3280 C.2   235  SER235      0.2288
    138  O          0.7690   -0.3570   50.9640 O.2   235  SER235     -0.2866
    139  CB         1.1480   -2.1260   48.8710 C.3   235  SER235      0.2089
    140  OG         1.5680   -3.0930   47.9200 O.3   235  SER235     -0.2183
    141  N         -0.8970    7.8340   46.9820 N.3   257  MET257     -0.1245
    142  CA         0.2480    8.6500   46.5690 C.3   257  MET257      0.1570
    143  C          0.2070   10.0870   47.0830 C.2   257  MET257      0.2261
    144  O          1.2360   10.7660   47.1180 O.2   257  MET257     -0.2867
    145  CB         0.4020    8.6400   45.0430 C.3   257  MET257      0.0387
    146  CG         1.0240    7.3510   44.4670 C.3   257  MET257      0.0595
    147  SD         2.4560    6.7110   45.3800 S.3   257  MET257     -0.1393
    148  CE         3.7180    7.9320   45.0070 C.3   257  MET257      0.0692
@<TRIPOS>BOND
     1    87    88    1
     2    82    81    2
     3    88    89    1
     4    88    91    1
     5    81    80    1
     6    89    90    2
     7    91    92    1
     8    95    96    1
     9    80    83    1
    10    80    79    1
    11     3     4    2
    12     3     2    1
    13   101   102    1
    14    55    56    1
    15    83    84    1
    16   109   110    1
    17    92    93    2
    18    92    94   am
    19    97    96    1
    20    97    98    2
    21     1     2    1
    22   103   102    1
    23   103   104    2
    24    96    99    1
    25     2     5    1
    26   110   113    1
    27   110   111    1
    28   102   105    1
    29    56    59    1
    30    56    57    1
    31     6     5    1
    32     6     7    1
    33    99   100    1
    34   113   114    1
    35    59    60    1
    36   115   114    2
    37    86    85    1
    38    84    85    1
    39   105   106    1
    40     8     9    1
    41     8     7    1
    42   114   116   am
    43    62    60   ar
    44    62    64   ar
    45   111   112    2
    46   111   117   am
    47    57    58    2
    48    60    61   ar
    49   108   106    1
    50    68    67    2
    51   106   107    1
    52   117   118    1
    53    67    66    1
    54    64    63   ar
    55    54    53    2
    56   126   127    1
    57    61    63   ar
    58   119   118    1
    59   119   120    2
    60   118   121    1
    61    53    52    1
    62    69    66    1
    63    69    70    1
    64    66    65    1
    65   121   122    1
    66   127   130    1
    67   127   128    1
    68   131   130    1
    69   131   132    1
    70    50    49    1
    71    52    51    1
    72   146   145    1
    73   146   147    1
    74    70    71   ar
    75    70    72   ar
    76   132   133   ar
    77   132   134   ar
    78   128   129    2
    79    71    73   ar
    80   148   147    1
    81    51    47   am
    82    14    15    1
    83    14    11    1
    84   145   142    1
    85   122   123    1
    86    17    15   ar
    87   124   123    1
    88   124   125    1
    89    72    75   ar
    90    72    74   ar
    91    10    11    1
    92    15    16   ar
    93    75    77   ar
    94    49    46    1
    95    11    12    1
    96    47    48    2
    97    47    46    1
    98    73    74   ar
    99    44    41    1
   100    46    45    1
   101    45    42   am
   102    31    30   ar
   103   142   141    1
   104   142   143    1
   105    74    76   ar
   106    77    78   ar
   107   143   144    2
   108    32    30   ar
   109    12    18   am
   110    12    13    2
   111    30    29    1
   112    41    42    1
   113    41    40    1
   114    42    43    2
   115    18    19    1
   116    76    78   ar
   117   140   139    1
   118    29    28    1
   119    28    25    1
   120    36    35    2
   121    23    22    1
   122    40    35   am
   123   139   136    1
   124    19    22    1
   125    19    20    1
   126    24    25    1
   127    24    20   am
   128    35    34    1
   129    25    26    1
   130    20    21    2
   131    26    27    2
   132   136   135    1
   133   136   137    1
   134    34    33    1
   135    34    37    1
   136   138   137    2
   137    38    37    1
   138    37    39    1
