@<TRIPOS>MOLECULE
tmp/2jddA00.pdb
 208 203 0 0 0
SMALL
GASTEIGER

@<TRIPOS>ATOM
      1  N         25.5160   11.8120    7.3800 N.3    18  ILE18      -0.1231
      2  CA        24.1120   11.5540    7.6190 C.3    18  ILE18       0.1692
      3  C         23.7700   11.4680    9.1040 C.2    18  ILE18       0.2591
      4  O         22.7770   12.0790    9.5570 O.2    18  ILE18      -0.2718
      5  CB        23.6590   10.2680    6.8820 C.3    18  ILE18       0.0266
      6  CG1       23.9760   10.3630    5.3790 C.3    18  ILE18       0.0019
      7  CG2       22.1730   10.0070    7.1280 C.3    18  ILE18       0.0020
      8  CD1       23.8580    9.0530    4.6320 C.3    18  ILE18       0.0001
      9  N         24.5780   10.7490    9.8840 N.am   19  LEU19      -0.1980
     10  CA        24.2230   10.4570   11.2680 C.3    19  LEU19       0.1596
     11  C         24.7960   11.4200   12.2860 C.2    19  LEU19       0.2287
     12  O         24.1230   11.7550   13.2650 O.2    19  LEU19      -0.2864
     13  CB        24.6240    9.0310   11.6460 C.3    19  LEU19       0.0297
     14  CG        23.9240    7.9660   10.7900 C.3    19  LEU19       0.0022
     15  CD1       24.5680    6.6080   10.9930 C.3    19  LEU19       0.0001
     16  CD2       22.4340    7.9030   11.0960 C.3    19  LEU19       0.0001
     17  N         22.6380   -3.9890   14.8140 N.3    71  LEU71      -0.1231
     18  CA        22.8000   -3.0840   13.6890 C.3    71  LEU71       0.1693
     19  C         23.2070   -1.6980   14.1830 C.2    71  LEU71       0.2592
     20  O         22.5560   -1.1390   15.0460 O.2    71  LEU71      -0.2718
     21  CB        21.4760   -2.9650   12.9370 C.3    71  LEU71       0.0284
     22  CG        21.3420   -1.8060   11.9260 C.3    71  LEU71       0.0019
     23  CD1       22.2940   -1.9640   10.7760 C.3    71  LEU71       0.0001
     24  CD2       19.8880   -1.8080   11.4180 C.3    71  LEU71       0.0001
     25  N         24.2660   -1.1580   13.5940 N.am   72  ARG72      -0.1966
     26  CA        24.7140    0.2080   13.8070 C.3    72  ARG72       0.1729
     27  C         24.9330    0.9070   12.4800 C.2    72  ARG72       0.2617
     28  O         25.1640    0.2390   11.4620 O.2    72  ARG72      -0.2715
     29  CB        26.0060    0.2190   14.6040 C.3    72  ARG72       0.0348
     30  CG        25.7780   -0.4110   15.9390 C.3    72  ARG72       0.0492
     31  CD        26.5020    0.1700   17.0200 C.3    72  ARG72       0.2205
     32  NE        26.4970    1.6200   17.0550 N.pl3  72  ARG72      -0.0865
     33  CZ        27.3520    2.2980   17.8070 C.cat  72  ARG72       0.5346
     34  NH1       28.2160    1.6430   18.5580 N.pl3  72  ARG72       0.1354
     35  NH2       27.3560    3.6120   17.7960 N.pl3  72  ARG72       0.1354
     36  N         24.8660    2.2430   12.4750 N.am   73  GLY73      -0.1940
     37  CA        25.2830    3.0120   11.3060 C.3    73  GLY73       0.2014
     38  C         24.4570    2.7740   10.0540 C.2    73  GLY73       0.2639
     39  O         24.9890    2.7580    8.9430 O.2    73  GLY73      -0.2714
     40  N         23.1470    2.6240   10.2470 N.am   74  MET74      -0.1963
     41  CA        22.2010    2.4510    9.1410 C.3    74  MET74       0.1736
     42  C         21.8840    3.8180    8.5550 C.2    74  MET74       0.2616
     43  O         21.3270    4.6680    9.2390 O.2    74  MET74      -0.2715
     44  CB        20.9230    1.8080    9.6630 C.3    74  MET74       0.0427
     45  CG        19.8100    1.6000    8.6540 C.3    74  MET74       0.0599
     46  SD        20.0110    0.1700    7.5390 S.3    74  MET74      -0.1393
     47  CE        20.5530    0.9470    6.0390 C.3    74  MET74       0.0692
     48  N         22.2140    4.0310    7.2890 N.am   75  ALA75      -0.1963
     49  CA        22.0170    5.3400    6.6640 C.3    75  ALA75       0.1728
     50  C         21.9520    5.2270    5.1470 C.2    75  ALA75       0.2616
     51  O         22.7060    4.4580    4.5410 O.2    75  ALA75      -0.2715
     52  CB        23.1320    6.2800    7.0480 C.3    75  ALA75       0.0334
     53  N         21.0710    6.0250    4.5470 N.am   76  THR76      -0.1951
     54  CA        21.0060    6.1810    3.1040 C.3    76  THR76       0.1897
     55  C         21.0670    7.6520    2.7690 C.2    76  THR76       0.2313
     56  O         20.4250    8.4450    3.4320 O.2    76  THR76      -0.2863
     57  CB        19.7330    5.5630    2.5200 C.3    76  THR76       0.1794
     58  OG1       19.6990    4.1640    2.8240 O.3    76  THR76      -0.2208
     59  CG2       19.6760    5.7480    1.0180 C.3    76  THR76       0.0378
     60  N         17.1820    7.7520   -1.1280 N.3    81  ARG81      -0.1231
     61  CA        16.2070    7.1200   -0.2620 C.3    81  ARG81       0.1694
     62  C         14.9920    6.6950   -1.0460 C.2    81  ARG81       0.2592
     63  O         14.7770    7.1630   -2.1690 O.2    81  ARG81      -0.2718
     64  CB        15.8040    8.0420    0.8850 C.3    81  ARG81       0.0321
     65  CG        16.9760    8.4220    1.7350 C.3    81  ARG81       0.0489
     66  CD        16.6620    9.3810    2.8350 C.3    81  ARG81       0.2205
     67  NE        17.8960    9.6690    3.5490 N.pl3  81  ARG81      -0.0865
     68  CZ        18.0610   10.6200    4.4590 C.cat  81  ARG81       0.5346
     69  NH1       17.0470   11.4220    4.7980 N.pl3  81  ARG81       0.1354
     70  NH2       19.2320   10.7650    5.0570 N.pl3  81  ARG81       0.1354
     71  N         14.2040    5.8070   -0.4400 N.am   82  GLU82      -0.1966
     72  CA        12.9470    5.3200   -1.0300 C.3    82  GLU82       0.1733
     73  C         13.1510    4.4620   -2.2700 C.2    82  GLU82       0.2616
     74  O         12.2390    4.3280   -3.1000 O.2    82  GLU82      -0.2715
     75  CB        11.9750    6.4760   -1.3410 C.3    82  GLU82       0.0429
     76  CG        11.9220    7.5550   -0.3050 C.3    82  GLU82       0.1163
     77  CD        11.3430    7.1000    0.9980 C.2    82  GLU82       0.3649
     78  OE1       10.5250    6.1550    1.0210 O.co2  82  GLU82      -0.2457
     79  OE2       11.6980    7.7100    2.0320 O.co2  82  GLU82      -0.2457
     80  N         14.3280    3.8500   -2.3840 N.am   83  GLN83      -0.1963
     81  CA        14.6640    2.9770   -3.5140 C.3    83  GLN83       0.1733
     82  C         14.9320    1.5360   -3.0580 C.2    83  GLN83       0.2616
     83  O         15.4450    0.7310   -3.8400 O.2    83  GLN83      -0.2715
     84  CB        15.9330    3.4740   -4.2340 C.3    83  GLN83       0.0408
     85  CG        15.9940    4.9480   -4.5030 C.3    83  GLN83       0.0908
     86  CD        14.8460    5.4400   -5.3430 C.2    83  GLN83       0.2608
     87  OE1       14.4560    4.8060   -6.3380 O.2    83  GLN83      -0.2717
     88  NE2       14.3050    6.5960   -4.9740 N.am   83  GLN83      -0.0878
     89  N         14.6230    1.2350   -1.7950 N.am   84  LYS84      -0.1963
     90  CA        14.9220   -0.0660   -1.1750 C.3    84  LYS84       0.1728
     91  C         16.4260   -0.3200   -0.9490 C.2    84  LYS84       0.2616
     92  O         16.8490   -1.4570   -0.7200 O.2    84  LYS84      -0.2715
     93  CB        14.2670   -1.2330   -1.9360 C.3    84  LYS84       0.0311
     94  CG        12.7300   -1.1400   -1.9420 C.3    84  LYS84       0.0038
     95  CD        12.1550   -1.3770   -0.5530 C.3    84  LYS84       0.0206
     96  CE        10.6380   -1.3270   -0.4630 C.3    84  LYS84       0.1093
     97  NZ        10.0430   -0.2170   -1.2340 N.3    84  LYS84      -0.1314
     98  N         17.2310    0.7420   -0.9430 N.am   85  ALA85      -0.1963
     99  CA        18.6520    0.5560   -0.6260 C.3    85  ALA85       0.1728
    100  C         18.8110   -0.0040    0.7960 C.2    85  ALA85       0.2617
    101  O         19.4290   -1.0640    0.9990 O.2    85  ALA85      -0.2715
    102  CB        19.4040    1.8340   -0.7780 C.3    85  ALA85       0.0334
    103  N         18.2390    0.6790    1.7810 N.am   86  GLY86      -0.1940
    104  CA        18.3840    0.1980    3.1570 C.3    86  GLY86       0.2014
    105  C         17.7920   -1.1830    3.3490 C.2    86  GLY86       0.2639
    106  O         18.4160   -2.0450    3.9550 O.2    86  GLY86      -0.2714
    107  N         16.5870   -1.4070    2.8200 N.am   87  SER87      -0.1949
    108  CA        15.9240   -2.7170    2.9450 C.3    87  SER87       0.1924
    109  C         16.7920   -3.8270    2.3450 C.2    87  SER87       0.2314
    110  O         16.8790   -4.9260    2.8970 O.2    87  SER87      -0.2863
    111  CB        14.5640   -2.7060    2.2410 C.3    87  SER87       0.2116
    112  OG        13.6240   -1.8960    2.9210 O.3    87  SER87      -0.2180
    113  N         18.3960   -3.1480   17.0670 N.3   107  CYS107     -0.1221
    114  CA        18.9450   -1.8170   16.8420 C.3   107  CYS107      0.1808
    115  C         18.3810   -0.8690   17.9020 C.2   107  CYS107      0.2601
    116  O         17.2130   -0.9940   18.2420 O.2   107  CYS107     -0.2717
    117  CB        18.5110   -1.3650   15.4450 C.3   107  CYS107      0.0970
    118  SG        19.1630    0.2090   14.9110 S.3   107  CYS107     -0.0800
    119  N         19.1830    0.0750   18.3960 N.am  108  ASN108     -0.1960
    120  CA        18.6250    1.1840   19.1420 C.3   108  ASN108      0.1819
    121  C         18.2370    2.2100   18.0800 C.2   108  ASN108      0.2621
    122  O         19.0580    3.0420   17.6500 O.2   108  ASN108     -0.2715
    123  CB        19.6300    1.7190   20.1520 C.3   108  ASN108      0.1195
    124  CG        19.7770    0.8120   21.3620 C.2   108  ASN108      0.2630
    125  OD1       18.7970    0.2750   21.8740 O.2   108  ASN108     -0.2716
    126  ND2       21.0030    0.6770   21.8550 N.am  108  ASN108     -0.0877
    127  N         17.0100    2.0840   17.5930 N.am  109  ALA109     -0.1963
    128  CA        16.5240    2.8670   16.4580 C.3   109  ALA109      0.1728
    129  C         16.2540    4.3200   16.8510 C.2   109  ALA109      0.2616
    130  O         15.6250    4.5940   17.8760 O.2   109  ALA109     -0.2715
    131  CB        15.2450    2.2480   15.9050 C.3   109  ALA109      0.0334
    132  N         16.6770    5.2510   16.0060 N.am  110  ARG110     -0.1977
    133  CA        16.1220    6.6020   16.0750 C.3   110  ARG110      0.1597
    134  C         14.6100    6.5070   15.9100 C.2   110  ARG110      0.2287
    135  O         14.1260    5.8330   15.0270 O.2   110  ARG110     -0.2864
    136  CB        16.7080    7.4900   14.9820 C.3   110  ARG110      0.0334
    137  CG        18.1750    7.7100   15.1510 C.3   110  ARG110      0.0492
    138  CD        18.7330    8.6640   14.1160 C.3   110  ARG110      0.2205
    139  NE        20.1310    8.9160   14.4220 N.pl3 110  ARG110     -0.0865
    140  CZ        20.8440    9.9160   13.9210 C.cat 110  ARG110      0.5346
    141  NH1       20.3210   10.7540   13.0480 N.pl3 110  ARG110      0.1354
    142  NH2       22.0990   10.0500   14.2830 N.pl3 110  ARG110      0.1354
    143  N         12.6430    8.5570   14.6940 N.3   112  SER112     -0.1202
    144  CA        12.3060    9.0660   13.3610 C.3   112  SER112      0.2020
    145  C         12.3720    7.9910   12.2660 C.2   112  SER112      0.2618
    146  O         11.8060    8.1820   11.1990 O.2   112  SER112     -0.2717
    147  CB        13.1840   10.2660   12.9820 C.3   112  SER112      0.2103
    148  OG        14.5670    9.9460   12.9780 O.3   112  SER112     -0.2182
    149  N         13.0630    6.8770   12.5420 N.am  113  ALA113     -0.1979
    150  CA        13.1830    5.7550   11.6170 C.3   113  ALA113      0.1597
    151  C         12.3790    4.5280   12.0500 C.2   113  ALA113      0.2287
    152  O         12.4680    3.4810   11.4360 O.2   113  ALA113     -0.2864
    153  CB        14.6740    5.3680   11.4820 C.3   113  ALA113      0.0319
    154  N          9.3600    3.6350   11.6730 N.3   115  GLY115     -0.1210
    155  CA         8.4810    3.1070   10.6480 C.3   115  GLY115      0.1956
    156  C          9.2020    2.3100    9.5860 C.2   115  GLY115      0.2612
    157  O          8.6180    1.4240    8.9630 O.2   115  GLY115     -0.2717
    158  N         10.4740    2.6430    9.3600 N.am  116  TYR116     -0.1962
    159  CA        11.3200    1.8840    8.4370 C.3   116  TYR116      0.1771
    160  C         11.5480    0.4770    8.9700 C.2   116  TYR116      0.2619
    161  O         11.3240   -0.4960    8.2660 O.2   116  TYR116     -0.2715
    162  CB        12.6340    2.6270    8.2400 C.3   116  TYR116      0.0574
    163  CG        13.7900    1.8470    7.6370 C.ar  116  TYR116     -0.0198
    164  CD1       13.8230    1.5270    6.2840 C.ar  116  TYR116     -0.0009
    165  CD2       14.8960    1.5180    8.4060 C.ar  116  TYR116     -0.0009
    166  CE1       14.9030    0.8660    5.7330 C.ar  116  TYR116      0.0417
    167  CE2       15.9620    0.8350    7.8740 C.ar  116  TYR116      0.0417
    168  CZ        15.9790    0.5140    6.5400 C.ar  116  TYR116      0.1957
    169  OH        17.0840   -0.1420    5.9940 O.3   116  TYR116     -0.2866
    170  N         11.9540    0.3700   10.2340 N.am  117  TYR117     -0.1974
    171  CA        12.1580   -0.9330   10.8490 C.3   117  TYR117      0.1639
    172  C         10.8450   -1.7030   10.9440 C.2   117  TYR117      0.2290
    173  O         10.8240   -2.8900   10.6920 O.2   117  TYR117     -0.2864
    174  CB        12.8360   -0.7900   12.2090 C.3   117  TYR117      0.0560
    175  CG        14.2400   -0.2510   12.0580 C.ar  117  TYR117     -0.0198
    176  CD1       15.2170   -1.0210   11.4520 C.ar  117  TYR117     -0.0009
    177  CD2       14.5800    1.0310   12.4740 C.ar  117  TYR117     -0.0009
    178  CE1       16.4830   -0.5290   11.2710 C.ar  117  TYR117      0.0417
    179  CE2       15.8600    1.5300   12.3010 C.ar  117  TYR117      0.0417
    180  CZ        16.8120    0.7410   11.7000 C.ar  117  TYR117      0.1957
    181  OH        18.0970    1.2270   11.5080 O.3   117  TYR117     -0.2866
    182  N          8.3640   -1.6010    8.7920 N.3   119  LYS119     -0.1231
    183  CA         8.1020   -2.1250    7.4510 C.3   119  LYS119      0.1693
    184  C          8.9410   -3.3780    7.1670 C.2   119  LYS119      0.2591
    185  O          8.5400   -4.2460    6.4060 O.2   119  LYS119     -0.2718
    186  CB         8.3590   -1.0510    6.3950 C.3   119  LYS119      0.0285
    187  CG         7.3110    0.0480    6.3580 C.3   119  LYS119      0.0035
    188  CD         6.2380   -0.1930    5.3440 C.3   119  LYS119      0.0206
    189  CE         5.1750    0.9240    5.3730 C.3   119  LYS119      0.1093
    190  NZ         5.5720    2.1770    4.6550 N.3   119  LYS119     -0.1314
    191  N         10.1180   -3.4510    7.7870 N.am  120  LEU120     -0.1980
    192  CA        10.9970   -4.6120    7.6960 C.3   120  LEU120      0.1596
    193  C         10.6830   -5.7070    8.7210 C.2   120  LEU120      0.2287
    194  O         11.4380   -6.6670    8.8550 O.2   120  LEU120     -0.2864
    195  CB        12.4600   -4.1550    7.8330 C.3   120  LEU120      0.0297
    196  CG        12.9920   -3.3990    6.6130 C.3   120  LEU120      0.0022
    197  CD1       14.2350   -2.6120    6.9600 C.3   120  LEU120      0.0001
    198  CD2       13.2880   -4.3450    5.5020 C.3   120  LEU120      0.0001
    199  N         15.4130    7.5250   21.0240 N.3   137  HIS137     -0.1241
    200  CA        15.6270    6.1790   20.4490 C.3   137  HIS137      0.1621
    201  C         14.6730    5.1650   21.0570 C.2   137  HIS137      0.2264
    202  O         14.1130    5.3820   22.1380 O.2   137  HIS137     -0.2867
    203  CB        17.0670    5.7240   20.6690 C.3   137  HIS137      0.0745
    204  CG        18.0580    6.4960   19.8620 C.ar  137  HIS137      0.0817
    205  ND1       18.3330    7.8280   20.0970 N.ar  137  HIS137     -0.2268
    206  CD2       18.8260    6.1310   18.8120 C.ar  137  HIS137      0.1154
    207  CE1       19.2240    8.2460   19.2150 C.ar  137  HIS137      0.1986
    208  NE2       19.5590    7.2330   18.4410 N.ar  137  HIS137     -0.2212
@<TRIPOS>BOND
     1    87    86    2
     2    86    88   am
     3    86    85    1
     4    85    84    1
     5    84    81    1
     6    83    82    2
     7    81    82    1
     8    81    80    1
     9    74    73    2
    10    82    89   am
    11    80    73   am
    12    73    72    1
    13    63    62    2
    14    94    93    1
    15    94    95    1
    16    93    90    1
    17    89    90    1
    18    75    72    1
    19    75    76    1
    20    97    96    1
    21    90    91    1
    22    60    61    1
    23    62    71   am
    24    62    61    1
    25    72    71    1
    26    91    98   am
    27    91    92    2
    28    98    99    1
    29   102    99    1
    30    99   100    1
    31    95    96    1
    32    76    77    1
    33    61    64    1
    34   100   101    2
    35   100   103   am
    36    64    65    1
    37    77    78   ar
    38    77    79   ar
    39    59    57    1
    40    65    66    1
    41   103   104    1
    42   111   112    1
    43   111   108    1
    44   109   110    2
    45   109   108    1
    46    57    58    1
    47    57    54    1
    48    55    54    1
    49    55    56    2
    50   107   108    1
    51   107   105   am
    52    66    67    1
    53    54    53    1
    54   104   105    1
    55   105   106    2
    56    67    68    2
    57    68    69    1
    58    68    70    1
    59    51    50    2
    60    53    50   am
    61     8     6    1
    62   190   189    1
    63    50    49    1
    64   188   189    1
    65   188   187    1
    66     6     5    1
    67   198   196    1
    68   166   164   ar
    69   166   168   ar
    70   169   168    1
    71    47    46    1
    72   164   163   ar
    73   187   186    1
    74   186   183    1
    75   185   184    2
    76   168   167   ar
    77   196   197    1
    78   196   195    1
    79    49    52    1
    80    49    48    1
    81     5     7    1
    82     5     2    1
    83   184   183    1
    84   184   191   am
    85    48    42   am
    86     1     2    1
    87   183   182    1
    88    46    45    1
    89     2     3    1
    90   163   162    1
    91   163   165   ar
    92   192   191    1
    93   192   195    1
    94   192   193    1
    95   167   165   ar
    96   162   159    1
    97   161   160    2
    98   159   160    1
    99   159   158    1
   100    42    41    1
   101    42    43    2
   102    45    44    1
   103   193   194    2
   104    39    38    2
   105   157   156    2
   106   160   170   am
   107     3     4    2
   108     3     9   am
   109    41    44    1
   110    41    40    1
   111   158   156   am
   112   156   155    1
   113     9    10    1
   114    38    40   am
   115    38    37    1
   116   170   171    1
   117   155   154    1
   118   173   172    2
   119    23    22    1
   120    14    15    1
   121    14    16    1
   122    14    13    1
   123   171   172    1
   124   171   174    1
   125   146   145    2
   126    10    13    1
   127    10    11    1
   128   178   176   ar
   129   178   180   ar
   130    37    36    1
   131    24    22    1
   132   152   151    2
   133   176   175   ar
   134    28    27    2
   135   153   150    1
   136   181   180    1
   137   150   151    1
   138   150   149    1
   139   180   179   ar
   140    22    21    1
   141   175   174    1
   142   175   177   ar
   143   145   149   am
   144   145   144    1
   145    11    12    2
   146   179   177   ar
   147    36    27   am
   148    27    26    1
   149    21    18    1
   150   148   147    1
   151   147   144    1
   152   141   140    1
   153   144   143    1
   154    25    26    1
   155    25    19   am
   156    18    19    1
   157    18    17    1
   158    26    29    1
   159   140   142    1
   160   140   139    2
   161   138   139    1
   162   138   137    1
   163    19    20    2
   164    29    30    1
   165   118   117    1
   166   136   137    1
   167   136   133    1
   168   135   134    2
   169   117   114    1
   170   131   128    1
   171   134   133    1
   172    30    31    1
   173   132   133    1
   174   132   129   am
   175   128   129    1
   176   128   127    1
   177   114   113    1
   178   114   115    1
   179   129   130    2
   180    31    32    1
   181    32    33    2
   182   127   121   am
   183   122   121    2
   184    35    33    1
   185    33    34    1
   186   115   116    2
   187   115   119   am
   188   121   120    1
   189   119   120    1
   190   208   206   ar
   191   208   207   ar
   192   206   204   ar
   193   120   123    1
   194   207   205   ar
   195   204   205   ar
   196   204   203    1
   197   123   124    1
   198   200   203    1
   199   200   199    1
   200   200   201    1
   201   201   202    2
   202   124   126   am
   203   124   125    2
