@<TRIPOS>MOLECULE
tmp/2jddA01.pdb
 96 90 0 0 0
SMALL
GASTEIGER

@<TRIPOS>ATOM
      1  N         24.5780   10.7490    9.8840 N.3    19  LEU19      -0.1231
      2  CA        24.2230   10.4570   11.2680 C.3    19  LEU19       0.1693
      3  C         24.7960   11.4200   12.2860 C.2    19  LEU19       0.2591
      4  O         24.1230   11.7550   13.2650 O.2    19  LEU19      -0.2718
      5  CB        24.6240    9.0310   11.6460 C.3    19  LEU19       0.0284
      6  CG        23.9240    7.9660   10.7900 C.3    19  LEU19       0.0019
      7  CD1       24.5680    6.6080   10.9930 C.3    19  LEU19       0.0001
      8  CD2       22.4340    7.9030   11.0960 C.3    19  LEU19       0.0001
      9  N         26.0440   11.8240   12.1010 N.am   20  ARG20      -0.1980
     10  CA        26.7430   12.6020   13.1370 C.3    20  ARG20       0.1597
     11  C         27.5090   13.7940   12.5650 C.2    20  ARG20       0.2287
     12  O         28.6980   13.9570   12.8170 O.2    20  ARG20      -0.2864
     13  CB        27.6860   11.6990   13.9010 C.3    20  ARG20       0.0334
     14  CG        27.0170   10.6130   14.7090 C.3    20  ARG20       0.0492
     15  CD        28.0980    9.6820   15.2430 C.3    20  ARG20       0.2205
     16  NE        27.5880    8.5080   15.9470 N.pl3  20  ARG20      -0.0865
     17  CZ        27.4110    8.3970   17.2650 C.cat  20  ARG20       0.5346
     18  NH1       27.6510    9.4140   18.0880 N.pl3  20  ARG20       0.1354
     19  NH2       26.9610    7.2530   17.7670 N.pl3  20  ARG20       0.1354
     20  N         33.2410    3.6670   15.3510 N.3    30  PHE30      -0.1241
     21  CA        32.5630    2.9910   16.4190 C.3    30  PHE30       0.1605
     22  C         33.4350    1.9130   16.9890 C.2    30  PHE30       0.2264
     23  O         34.0100    1.0950   16.2810 O.2    30  PHE30      -0.2867
     24  CB        31.2520    2.3500   15.9540 C.3    30  PHE30       0.0534
     25  CG        30.2550    3.3070   15.3540 C.ar   30  PHE30      -0.0203
     26  CD1       30.2410    4.6660   15.6470 C.ar   30  PHE30      -0.0042
     27  CD2       29.2650    2.8100   14.5340 C.ar   30  PHE30      -0.0042
     28  CE1       29.2900    5.4960   15.0910 C.ar   30  PHE30      -0.0003
     29  CE2       28.3260    3.6210   13.9920 C.ar   30  PHE30      -0.0003
     30  CZ        28.3250    4.9700   14.2620 C.ar   30  PHE30      -0.0000
     31  N         24.2660   -1.1580   13.5940 N.3    72  ARG72      -0.1231
     32  CA        24.7140    0.2080   13.8070 C.3    72  ARG72       0.1694
     33  C         24.9330    0.9070   12.4800 C.2    72  ARG72       0.2593
     34  O         25.1640    0.2390   11.4620 O.2    72  ARG72      -0.2718
     35  CB        26.0060    0.2190   14.6040 C.3    72  ARG72       0.0321
     36  CG        25.7780   -0.4110   15.9390 C.3    72  ARG72       0.0489
     37  CD        26.5020    0.1700   17.0200 C.3    72  ARG72       0.2205
     38  NE        26.4970    1.6200   17.0550 N.pl3  72  ARG72      -0.0865
     39  CZ        27.3520    2.2980   17.8070 C.cat  72  ARG72       0.5346
     40  NH1       28.2160    1.6430   18.5580 N.pl3  72  ARG72       0.1354
     41  NH2       27.3560    3.6120   17.7960 N.pl3  72  ARG72       0.1354
     42  N         24.8660    2.2430   12.4750 N.am   73  GLY73      -0.1942
     43  CA        25.2830    3.0120   11.3060 C.3    73  GLY73       0.2014
     44  C         24.4570    2.7740   10.0540 C.2    73  GLY73       0.2638
     45  O         24.9890    2.7580    8.9430 O.2    73  GLY73      -0.2714
     46  N         23.1470    2.6240   10.2470 N.am   74  MET74      -0.1976
     47  CA        22.2010    2.4510    9.1410 C.3    74  MET74       0.1605
     48  C         21.8840    3.8180    8.5550 C.2    74  MET74       0.2287
     49  O         21.3270    4.6680    9.2390 O.2    74  MET74      -0.2864
     50  CB        20.9230    1.8080    9.6630 C.3    74  MET74       0.0413
     51  CG        19.8100    1.6000    8.6540 C.3    74  MET74       0.0598
     52  SD        20.0110    0.1700    7.5390 S.3    74  MET74      -0.1393
     53  CE        20.5530    0.9470    6.0390 C.3    74  MET74       0.0692
     54  N         19.1830    0.0750   18.3960 N.3   108  ASN108     -0.1240
     55  CA        18.6250    1.1840   19.1420 C.3   108  ASN108      0.1653
     56  C         18.2370    2.2100   18.0800 C.2   108  ASN108      0.2266
     57  O         19.0580    3.0420   17.6500 O.2   108  ASN108     -0.2867
     58  CB        19.6300    1.7190   20.1520 C.3   108  ASN108      0.1155
     59  CG        19.7770    0.8120   21.3620 C.2   108  ASN108      0.2627
     60  OD1       18.7970    0.2750   21.8740 O.2   108  ASN108     -0.2716
     61  ND2       21.0030    0.6770   21.8550 N.am  108  ASN108     -0.0877
     62  N         16.6770    5.2510   16.0060 N.3   110  ARG110     -0.1245
     63  CA        16.1220    6.6020   16.0750 C.3   110  ARG110      0.1563
     64  C         14.6100    6.5070   15.9100 C.2   110  ARG110      0.2260
     65  O         14.1260    5.8330   15.0270 O.2   110  ARG110     -0.2867
     66  CB        16.7080    7.4900   14.9820 C.3   110  ARG110      0.0307
     67  CG        18.1750    7.7100   15.1510 C.3   110  ARG110      0.0489
     68  CD        18.7330    8.6640   14.1160 C.3   110  ARG110      0.2205
     69  NE        20.1310    8.9160   14.4220 N.pl3 110  ARG110     -0.0865
     70  CZ        20.8440    9.9160   13.9210 C.cat 110  ARG110      0.5346
     71  NH1       20.3210   10.7540   13.0480 N.pl3 110  ARG110      0.1354
     72  NH2       22.0990   10.0500   14.2830 N.pl3 110  ARG110      0.1354
     73  N         19.1680    9.9030   23.7550 N.3   131  THR131     -0.1218
     74  CA        20.6300    9.8680   23.7450 C.3   131  THR131      0.1862
     75  C         21.1740   11.1370   23.0680 C.2   131  THR131      0.2287
     76  O         21.2860   11.1990   21.8400 O.2   131  THR131     -0.2866
     77  CB        21.2100    8.6320   23.0310 C.3   131  THR131      0.1770
     78  OG1       20.9020    8.6940   21.6370 O.3   131  THR131     -0.2211
     79  CG2       20.6720    7.3240   23.6220 C.3   131  THR131      0.0375
     80  N         21.9830   13.1500   19.7600 N.3   134  VAL134     -0.1245
     81  CA        21.2460   12.5650   18.6340 C.3   134  VAL134      0.1561
     82  C         19.8320   12.0470   18.9430 C.2   134  VAL134      0.2260
     83  O         19.2660   11.2750   18.1420 O.2   134  VAL134     -0.2867
     84  CB        22.0710   11.4460   17.9290 C.3   134  VAL134      0.0252
     85  CG1       23.2510   12.0560   17.1940 C.3   134  VAL134      0.0019
     86  CG2       22.5370   10.3820   18.9040 C.3   134  VAL134      0.0019
     87  N         15.4130    7.5250   21.0240 N.3   137  HIS137     -0.1241
     88  CA        15.6270    6.1790   20.4490 C.3   137  HIS137      0.1621
     89  C         14.6730    5.1650   21.0570 C.2   137  HIS137      0.2264
     90  O         14.1130    5.3820   22.1380 O.2   137  HIS137     -0.2867
     91  CB        17.0670    5.7240   20.6690 C.3   137  HIS137      0.0745
     92  CG        18.0580    6.4960   19.8620 C.ar  137  HIS137      0.0817
     93  ND1       18.3330    7.8280   20.0970 N.ar  137  HIS137     -0.2268
     94  CD2       18.8260    6.1310   18.8120 C.ar  137  HIS137      0.1154
     95  CE1       19.2240    8.2460   19.2150 C.ar  137  HIS137      0.1986
     96  NE2       19.5590    7.2330   18.4410 N.ar  137  HIS137     -0.2212
@<TRIPOS>BOND
     1    53    52    1
     2    52    51    1
     3    48    47    1
     4    48    49    2
     5    51    50    1
     6    45    44    2
     7    47    50    1
     8    47    46    1
     9     1     2    1
    10    44    46   am
    11    44    43    1
    12     6     7    1
    13     6     8    1
    14     6     5    1
    15     2     5    1
    16     2     3    1
    17    43    42    1
    18    34    33    2
    19     9     3   am
    20     9    10    1
    21     3     4    2
    22    42    33   am
    23    33    32    1
    24    11    12    2
    25    11    10    1
    26    71    70    1
    27    10    13    1
    28    31    32    1
    29    32    35    1
    30    13    14    1
    31    70    72    1
    32    70    69    2
    33    29    30   ar
    34    29    27   ar
    35    68    69    1
    36    68    67    1
    37    30    28   ar
    38    27    25   ar
    39    35    36    1
    40    14    15    1
    41    66    67    1
    42    66    63    1
    43    65    64    2
    44    28    26   ar
    45    15    16    1
    46    20    21    1
    47    25    26   ar
    48    25    24    1
    49    64    63    1
    50    36    37    1
    51    16    17    2
    52    24    21    1
    53    62    63    1
    54    23    22    2
    55    21    22    1
    56    37    38    1
    57    38    39    2
    58    85    84    1
    59    17    19    1
    60    17    18    1
    61    57    56    2
    62    41    39    1
    63    39    40    1
    64    84    81    1
    65    84    86    1
    66    56    55    1
    67    83    82    2
    68    54    55    1
    69    96    94   ar
    70    96    95   ar
    71    81    82    1
    72    81    80    1
    73    94    92   ar
    74    55    58    1
    75    95    93   ar
    76    92    93   ar
    77    92    91    1
    78    58    59    1
    79    88    91    1
    80    88    87    1
    81    88    89    1
    82    89    90    2
    83    59    61   am
    84    59    60    2
    85    78    77    1
    86    76    75    2
    87    77    79    1
    88    77    74    1
    89    75    74    1
    90    74    73    1
