@<TRIPOS>MOLECULE
tmp/2jdhC00.pdb
 90 84 0 0 0
SMALL
GASTEIGER

@<TRIPOS>ATOM
      1  N         -0.8870   -6.8260   10.1450 N.3    21  ASN21      -0.1225
      2  CA        -0.6960   -7.5650    8.9070 C.3    21  ASN21       0.1785
      3  C         -0.8940   -9.0630    9.1800 C.2    21  ASN21       0.2598
      4  O          0.0790   -9.8380    9.2060 O.2    21  ASN21      -0.2718
      5  CB         0.7300   -7.3810    8.3650 C.3    21  ASN21       0.1169
      6  CG         0.9340   -5.9780    7.8130 C.2    21  ASN21       0.2627
      7  OD1        0.5030   -5.6550    6.6970 O.2    21  ASN21      -0.2716
      8  ND2        1.6340   -5.1240    8.5800 N.am   21  ASN21      -0.0877
      9  N         -2.1500   -9.4820    9.3900 N.am   22  SER22      -0.1938
     10  CA        -2.4350  -10.8700    9.7610 C.3    22  SER22       0.2055
     11  C         -3.9190  -11.0920    9.6210 C.2    22  SER22       0.2644
     12  O         -4.7250  -10.1710    9.7340 O.2    22  SER22      -0.2714
     13  CB        -2.0580  -11.0820   11.2200 C.3    22  SER22       0.2130
     14  OG        -2.4030  -12.4230   11.6290 O.3    22  SER22      -0.2179
     15  N         -4.3120  -12.3690    9.4040 N.am   23  SER23      -0.1935
     16  CA        -5.7450  -12.7050    9.5120 C.3    23  SER23       0.2055
     17  C         -6.2230  -12.6940   10.9260 C.2    23  SER23       0.2643
     18  O         -7.4560  -12.6040   11.1360 O.2    23  SER23      -0.2714
     19  CB        -6.0100  -14.0630    8.8480 C.3    23  SER23       0.2130
     20  OG        -5.2510  -15.0710    9.5240 O.3    23  SER23      -0.2179
     21  N         -5.3200  -12.7980   11.9130 N.am   24  GLY24      -0.1954
     22  CA        -5.7560  -12.7560   13.2920 C.3    24  GLY24       0.1869
     23  C         -5.9040  -11.3360   13.8210 C.2    24  GLY24       0.2309
     24  O         -5.1330  -10.4330   13.4430 O.2    24  GLY24      -0.2863
     25  N         -4.7790   -7.2070    6.7490 N.3    45  THR45      -0.1218
     26  CA        -3.6210   -7.7670    6.0500 C.3    45  THR45       0.1862
     27  C         -3.0450   -6.7130    5.0840 C.2    45  THR45       0.2287
     28  O         -2.3530   -7.0500    4.1340 O.2    45  THR45      -0.2866
     29  CB        -3.9700   -9.0830    5.3050 C.3    45  THR45       0.1770
     30  OG1       -5.1920   -8.9220    4.5690 O.3    45  THR45      -0.2211
     31  CG2       -4.1870  -10.1790    6.2810 C.3    45  THR45       0.0375
     32  N         -2.7810  -12.4290   20.3370 N.3    69  VAL69      -0.1245
     33  CA        -3.8260  -12.7460   19.3620 C.3    69  VAL69       0.1561
     34  C         -4.6510  -13.8640   19.9890 C.2    69  VAL69       0.2260
     35  O         -4.1060  -14.8970   20.3980 O.2    69  VAL69      -0.2867
     36  CB        -3.2310  -13.2390   18.0370 C.3    69  VAL69       0.0252
     37  CG1       -4.3400  -13.6970   17.0580 C.3    69  VAL69       0.0019
     38  CG2       -2.3570  -12.1540   17.4230 C.3    69  VAL69       0.0019
     39  N          5.1340  -12.1370   15.8700 N.3    95  GLU95      -0.1231
     40  CA         4.6930  -13.2940   15.0590 C.3    95  GLU95       0.1699
     41  C          3.6410  -14.0680   15.8400 C.2    95  GLU95       0.2592
     42  O          3.8660  -14.4920   16.9710 O.2    95  GLU95      -0.2718
     43  CB         5.9250  -14.1940   14.7710 C.3    95  GLU95       0.0402
     44  CG         5.5460  -15.4320   13.9590 C.3    95  GLU95       0.1161
     45  CD         4.8270  -15.1060   12.6880 C.2    95  GLU95       0.3649
     46  OE1        5.2820  -14.2540   11.8900 O.co2  95  GLU95      -0.2457
     47  OE2        3.7630  -15.7200   12.4120 O.co2  95  GLU95      -0.2457
     48  N          2.4880  -14.2400   15.1800 N.am   96  ASP96      -0.1960
     49  CA         1.3540  -14.9340   15.7660 C.3    96  ASP96       0.1840
     50  C          1.1630  -16.3580   15.2310 C.2    96  ASP96       0.2623
     51  O          0.2090  -17.0530   15.6730 O.2    96  ASP96      -0.2715
     52  CB         0.0790  -14.1020   15.6010 C.3    96  ASP96       0.1450
     53  CG        -0.3860  -13.9790   14.1710 C.2    96  ASP96       0.3671
     54  OD1       -0.0700  -14.8360   13.3310 O.co2  96  ASP96      -0.2456
     55  OD2       -1.1660  -13.0100   13.8920 O.co2  96  ASP96      -0.2456
     56  N          2.0400  -16.8020   14.3360 N.am   97  GLY97      -0.1940
     57  CA         1.8530  -18.0950   13.6480 C.3    97  GLY97       0.2014
     58  C          3.1840  -18.7290   13.3420 C.2    97  GLY97       0.2640
     59  O          4.0610  -18.7690   14.1740 O.2    97  GLY97      -0.2714
     60  N          3.2200  -19.2600   12.1120 N.am   98  THR98      -0.1936
     61  CA         4.3240  -20.1320   11.7400 C.3    98  THR98       0.2028
     62  C          5.1220  -19.5890   10.5430 C.2    98  THR98       0.2642
     63  O          6.2060  -20.1620   10.2460 O.2    98  THR98      -0.2714
     64  CB         3.7890  -21.5620   11.3160 C.3    98  THR98       0.1808
     65  OG1        2.7730  -21.3960   10.3140 O.3    98  THR98      -0.2208
     66  CG2        3.2310  -22.2500   12.5770 C.3    98  THR98       0.0379
     67  N          4.6750  -18.5440    9.8040 N.am   99  ASP99      -0.1971
     68  CA         5.3980  -18.1130    8.6370 C.3    99  ASP99       0.1709
     69  C          6.6000  -17.2360    8.9310 C.2    99  ASP99       0.2293
     70  O          7.4090  -16.9930    8.0520 O.2    99  ASP99      -0.2864
     71  CB         4.4700  -17.4630    7.6040 C.3    99  ASP99       0.1436
     72  CG         3.8880  -16.1040    8.0640 C.2    99  ASP99       0.3671
     73  OD1        4.0150  -15.7900    9.2950 O.co2  99  ASP99      -0.2456
     74  OD2        3.3310  -15.4180    7.1760 O.co2  99  ASP99      -0.2456
     75  N          6.9840  -14.0550    9.3020 N.3   101  ASP101     -0.1239
     76  CA         7.1630  -12.7380    8.6700 C.3   101  ASP101      0.1674
     77  C          7.3080  -11.6330    9.7700 C.2   101  ASP101      0.2266
     78  O          7.8280  -10.5530    9.4380 O.2   101  ASP101     -0.2867
     79  CB         6.0540  -12.3940    7.6710 C.3   101  ASP101      0.1410
     80  CG         4.6250  -12.3690    8.2370 C.2   101  ASP101      0.3668
     81  OD1        4.3980  -12.6180    9.4130 O.co2 101  ASP101     -0.2456
     82  OD2        3.7450  -12.0370    7.3770 O.co2 101  ASP101     -0.2456
     83  N          3.0020   -9.2370   12.0770 N.3   104  ASP104     -0.1239
     84  CA         1.5760   -9.4590   12.3040 C.3   104  ASP104      0.1674
     85  C          0.9790   -8.3070   13.1090 C.2   104  ASP104      0.2266
     86  O         -0.1180   -7.8270   12.7730 O.2   104  ASP104     -0.2867
     87  CB         1.3830  -10.8190   13.0090 C.3   104  ASP104      0.1410
     88  CG         1.8550  -11.9620   12.1150 C.2   104  ASP104      0.3668
     89  OD1        1.7260  -11.9060   10.8920 O.co2 104  ASP104     -0.2456
     90  OD2        2.4220  -12.9440   12.6910 O.co2 104  ASP104     -0.2456
@<TRIPOS>BOND
     1    28    27    2
     2    30    29    1
     3    27    26    1
     4    29    26    1
     5    29    31    1
     6    26    25    1
     7     7     6    2
     8    74    72   ar
     9    82    80   ar
    10    71    72    1
    11    71    68    1
    12    79    80    1
    13    79    76    1
    14     6     5    1
    15     6     8   am
    16    70    69    2
    17    72    73   ar
    18    80    81   ar
    19     5     2    1
    20    68    69    1
    21    68    67    1
    22    76    75    1
    23    76    77    1
    24    19    16    1
    25    19    20    1
    26     2     3    1
    27     2     1    1
    28     3     4    2
    29     3     9   am
    30     9    10    1
    31    15    16    1
    32    15    11   am
    33    78    77    2
    34    16    17    1
    35    11    12    2
    36    11    10    1
    37    10    13    1
    38    67    62   am
    39    63    62    2
    40    65    64    1
    41    62    61    1
    42    89    88   ar
    43    17    18    2
    44    17    21   am
    45    13    14    1
    46    64    61    1
    47    64    66    1
    48    61    60    1
    49    46    45   ar
    50    21    22    1
    51    83    84    1
    52    60    58   am
    53    88    90   ar
    54    88    87    1
    55    84    87    1
    56    84    85    1
    57    47    45   ar
    58    45    44    1
    59    86    85    2
    60    22    23    1
    61    54    53   ar
    62    58    57    1
    63    58    59    2
    64    24    23    2
    65    57    56    1
    66    55    53   ar
    67    44    43    1
    68    53    52    1
    69    56    50   am
    70    43    40    1
    71    40    41    1
    72    40    39    1
    73    48    49    1
    74    48    41   am
    75    50    51    2
    76    50    49    1
    77    52    49    1
    78    41    42    2
    79    37    36    1
    80    38    36    1
    81    36    33    1
    82    33    34    1
    83    33    32    1
    84    34    35    2
