@<TRIPOS>MOLECULE
tmp/2jdlA00.pdb
 160 152 0 0 0
SMALL
GASTEIGER

@<TRIPOS>ATOM
      1  N         20.9870  -11.6760   12.1290 N.3   166  PHE166     -0.1241
      2  CA        21.0080  -12.2490   13.4310 C.3   166  PHE166      0.1605
      3  C         19.8610  -11.6350   14.3010 C.2   166  PHE166      0.2264
      4  O         19.2420  -12.3220   15.1420 O.2   166  PHE166     -0.2867
      5  CB        22.3570  -12.0530   14.0940 C.3   166  PHE166      0.0534
      6  CG        22.4440  -12.6610   15.5020 C.ar  166  PHE166     -0.0203
      7  CD1       22.4030  -14.0700   15.6880 C.ar  166  PHE166     -0.0042
      8  CD2       22.5530  -11.8420   16.6370 C.ar  166  PHE166     -0.0042
      9  CE1       22.4640  -14.6520   16.9710 C.ar  166  PHE166     -0.0003
     10  CE2       22.6410  -12.4090   17.9340 C.ar  166  PHE166     -0.0003
     11  CZ        22.5890  -13.8030   18.1040 C.ar  166  PHE166     -0.0000
     12  N         16.3540  -13.0130   12.9460 N.3   169  GLN169     -0.1231
     13  CA        16.0790  -14.3220   13.4720 C.3   169  GLN169      0.1698
     14  C         15.7610  -14.3580   14.9710 C.2   169  GLN169      0.2592
     15  O         14.8670  -15.0690   15.3790 O.2   169  GLN169     -0.2718
     16  CB        17.1760  -15.3410   13.1420 C.3   169  GLN169      0.0381
     17  CG        18.3410  -15.3570   13.9480 C.3   169  GLN169      0.0905
     18  CD        18.3680  -16.4020   15.1090 C.2   169  GLN169      0.2608
     19  OE1       19.4300  -16.6420   15.6940 O.2   169  GLN169     -0.2717
     20  NE2       17.2290  -16.9630   15.4560 N.am  169  GLN169     -0.0878
     21  N         16.5170  -13.5940   15.7500 N.am  170  GLN170     -0.1979
     22  CA        16.3600  -13.5580   17.1700 C.3   170  GLN170      0.1601
     23  C         15.0180  -12.9690   17.6230 C.2   170  GLN170      0.2287
     24  O         14.4250  -13.4100   18.5780 O.2   170  GLN170     -0.2864
     25  CB        17.5190  -12.7980   17.7490 C.3   170  GLN170      0.0394
     26  CG        18.7920  -13.5490   17.7470 C.3   170  GLN170      0.0908
     27  CD        18.8440  -14.5830   18.8190 C.2   170  GLN170      0.2608
     28  OE1       19.1390  -14.2760   19.9650 O.2   170  GLN170     -0.2717
     29  NE2       18.5230  -15.8090   18.4650 N.am  170  GLN170     -0.0878
     30  N         11.9420  -15.3610   16.3010 N.3   173  LYS173     -0.1182
     31  CA        11.8730  -16.6150   16.9710 C.3   173  LYS173      0.1909
     32  C         11.0030  -16.4890   18.2460 C.2   173  LYS173      0.2634
     33  O         10.4710  -17.4760   18.7150 O.2   173  LYS173     -0.2714
     34  CB        13.3060  -17.0380   17.3380 C.2   173  LYS173     -0.0028
     35  CG        13.4510  -18.0800   18.4720 C.2   173  LYS173     -0.0272
     36  CD        14.9290  -18.4550   18.8870 C.3   173  LYS173      0.0462
     37  CE        14.8810  -19.2030   20.2870 C.3   173  LYS173      0.1140
     38  NZ        16.2490  -19.6830   20.7630 N.3   173  LYS173     -0.1310
     39  N         10.9380  -15.2820   18.8300 N.am  174  ARG174     -0.1977
     40  CA        10.0180  -14.9870   19.9240 C.3   174  ARG174      0.1597
     41  C          8.6390  -14.5950   19.3750 C.2   174  ARG174      0.2287
     42  O          8.3000  -13.3880   19.1620 O.2   174  ARG174     -0.2864
     43  CB        10.5540  -13.9090   20.8280 C.3   174  ARG174      0.0334
     44  CG        11.6160  -14.3840   21.7260 C.3   174  ARG174      0.0492
     45  CD        12.8930  -14.7440   20.9820 C.3   174  ARG174      0.2205
     46  NE        13.9100  -15.1550   21.9360 N.pl3 174  ARG174     -0.0865
     47  CZ        15.2130  -15.2180   21.6960 C.cat 174  ARG174      0.5346
     48  NH1       15.7150  -14.9580   20.4890 N.pl3 174  ARG174      0.1354
     49  NH2       16.0330  -15.5550   22.6800 N.pl3 174  ARG174      0.1354
     50  N         25.4830   -8.5950   22.0320 N.3   184  ALA184     -0.1245
     51  CA        25.7770   -8.9300   20.6070 C.3   184  ALA184      0.1562
     52  C         24.9110   -8.1080   19.6510 C.2   184  ALA184      0.2260
     53  O         25.3760   -7.4980   18.6900 O.2   184  ALA184     -0.2867
     54  CB        25.5450  -10.4560   20.3340 C.3   184  ALA184      0.0290
     55  N         25.9560   -4.9530   17.2250 N.3   188  LEU188     -0.1245
     56  CA        25.7000   -4.9360   15.7980 C.3   188  LEU188      0.1561
     57  C         24.9840   -3.6430   15.3580 C.2   188  LEU188      0.2260
     58  O         25.3390   -3.0170   14.3740 O.2   188  LEU188     -0.2867
     59  CB        24.8770   -6.1920   15.3860 C.3   188  LEU188      0.0270
     60  CG        25.5640   -7.5280   15.4720 C.3   188  LEU188      0.0019
     61  CD1       24.5640   -8.7130   15.2900 C.3   188  LEU188      0.0001
     62  CD2       26.6520   -7.6040   14.4020 C.3   188  LEU188      0.0001
     63  N         33.3700   -5.8120   17.6600 N.3   215  LEU215     -0.1231
     64  CA        32.0500   -6.3050   17.9770 C.3   215  LEU215      0.1693
     65  C         32.0770   -7.1390   19.2730 C.2   215  LEU215      0.2592
     66  O         33.1370   -7.5790   19.7320 O.2   215  LEU215     -0.2718
     67  CB        31.5150   -7.1720   16.8620 C.3   215  LEU215      0.0284
     68  CG        31.3330   -6.5700   15.4610 C.3   215  LEU215      0.0019
     69  CD1       30.6600   -7.6500   14.5690 C.3   215  LEU215      0.0001
     70  CD2       30.4960   -5.2730   15.5100 C.3   215  LEU215      0.0001
     71  N         30.8780   -7.3010   19.8570 N.am  216  ILE216     -0.1966
     72  CA        30.6620   -8.2180   20.9690 C.3   216  ILE216      0.1727
     73  C         29.8760   -9.3950   20.3740 C.2   216  ILE216      0.2616
     74  O         28.8550   -9.2150   19.7060 O.2   216  ILE216     -0.2715
     75  CB        29.9080   -7.6080   22.1700 C.3   216  ILE216      0.0290
     76  CG1       30.4900   -6.2360   22.6270 C.3   216  ILE216      0.0022
     77  CG2       29.8150   -8.6350   23.2730 C.3   216  ILE216      0.0023
     78  CD1       31.9940   -6.2530   23.0380 C.3   216  ILE216      0.0001
     79  N         30.3800  -10.5970   20.6120 N.am  217  ASN217     -0.1958
     80  CA        29.7420  -11.7840   20.1230 C.3   217  ASN217      0.1819
     81  C         28.7060  -12.2910   21.1100 C.2   217  ASN217      0.2621
     82  O         28.4050  -11.6470   22.0940 O.2   217  ASN217     -0.2715
     83  CB        30.8050  -12.8270   19.7090 C.3   217  ASN217      0.1195
     84  CG        31.5600  -13.4330   20.8800 C.2   217  ASN217      0.2630
     85  OD1       31.2190  -13.2360   22.0730 O.2   217  ASN217     -0.2716
     86  ND2       32.6150  -14.1840   20.5480 N.am  217  ASN217     -0.0877
     87  N         28.0750  -13.4140   20.7950 N.am  218  ALA218     -0.1963
     88  CA        27.0040  -13.9080   21.6410 C.3   218  ALA218      0.1728
     89  C         27.4910  -14.5210   22.9900 C.2   218  ALA218      0.2616
     90  O         26.6630  -14.8300   23.8510 O.2   218  ALA218     -0.2715
     91  CB        26.1440  -14.9760   20.8480 C.3   218  ALA218      0.0334
     92  N         28.8070  -14.6750   23.1560 N.am  219  GLN219     -0.1977
     93  CA        29.3960  -15.0700   24.4230 C.3   219  GLN219      0.1601
     94  C         29.9230  -13.8720   25.1490 C.2   219  GLN219      0.2287
     95  O         30.6680  -13.9990   26.1440 O.2   219  GLN219     -0.2864
     96  CB        30.5300  -16.0820   24.2100 C.3   219  GLN219      0.0394
     97  CG        30.0150  -17.4300   23.8320 C.3   219  GLN219      0.0908
     98  CD        29.6680  -17.5260   22.3410 C.2   219  GLN219      0.2608
     99  OE1       30.4750  -17.1190   21.4510 O.2   219  GLN219     -0.2717
    100  NE2       28.4630  -18.0850   22.0430 N.am  219  GLN219     -0.0878
    101  N         35.4940   -8.9950   20.0270 N.3   223  VAL223     -0.1231
    102  CA        36.1000   -9.5510   18.8080 C.3   223  VAL223      0.1692
    103  C         36.3010   -8.5050   17.7220 C.2   223  VAL223      0.2593
    104  O         35.5000   -7.5910   17.5670 O.2   223  VAL223     -0.2718
    105  CB        35.3130  -10.7930   18.2540 C.3   223  VAL223      0.0266
    106  CG1       35.2780  -11.8650   19.2990 C.3   223  VAL223      0.0020
    107  CG2       33.8520  -10.4690   17.6900 C.3   223  VAL223      0.0020
    108  N         37.3960   -8.6600   16.9810 N.am  224  THR224     -0.1939
    109  CA        37.9210   -7.6100   16.1450 C.3   224  THR224      0.2028
    110  C         37.7130   -8.0610   14.7250 C.2   224  THR224      0.2642
    111  O         38.1370   -9.1500   14.3240 O.2   224  THR224     -0.2714
    112  CB        39.4590   -7.4050   16.3260 C.3   224  THR224      0.1808
    113  OG1       39.7300   -7.0960   17.6810 O.3   224  THR224     -0.2208
    114  CG2       39.9610   -6.2570   15.4680 C.3   224  THR224      0.0379
    115  N         37.0190   -7.2360   13.9720 N.am  225  ILE225     -0.1977
    116  CA        36.7020   -7.5660   12.5740 C.3   225  ILE225      0.1596
    117  C         37.6150   -6.7140   11.7370 C.2   225  ILE225      0.2287
    118  O         37.6290   -5.4750   11.8470 O.2   225  ILE225     -0.2864
    119  CB        35.1980   -7.2650   12.2170 C.3   225  ILE225      0.0276
    120  CG1       34.1980   -7.7200   13.3610 C.3   225  ILE225      0.0022
    121  CG2       34.8630   -7.8170   10.7820 C.3   225  ILE225      0.0022
    122  CD1       34.1270   -9.1400   13.6600 C.3   225  ILE225      0.0001
    123  N         36.1170  -12.2010    5.4870 N.3   229  ASP229     -0.1225
    124  CA        35.8800  -13.5560    5.8940 C.3   229  ASP229      0.1805
    125  C         35.2390  -13.6880    7.2760 C.2   229  ASP229      0.2598
    126  O         34.8890  -14.7780    7.6390 O.2   229  ASP229     -0.2718
    127  CB        37.1700  -14.3250    5.8910 C.3   229  ASP229      0.1424
    128  CG        37.5680  -14.8040    4.4980 C.2   229  ASP229      0.3668
    129  OD1       36.6760  -15.1820    3.6460 O.co2 229  ASP229     -0.2456
    130  OD2       38.8100  -14.7910    4.3190 O.co2 229  ASP229     -0.2456
    131  N         35.1860  -12.6000    8.0460 N.am  230  ALA230     -0.1966
    132  CA        34.3450  -12.5150    9.2940 C.3   230  ALA230      0.1728
    133  C         32.9150  -13.0280    9.0620 C.2   230  ALA230      0.2617
    134  O         32.3230  -12.7210    8.0390 O.2   230  ALA230     -0.2715
    135  CB        34.3440  -11.1530    9.7870 C.3   230  ALA230      0.0334
    136  N         32.3870  -13.8580    9.9650 N.am  231  GLY231     -0.1940
    137  CA        30.9410  -14.2690    9.9340 C.3   231  GLY231      0.2014
    138  C         29.9310  -13.1040    9.8390 C.2   231  GLY231      0.2638
    139  O         28.8730  -13.2280    9.2470 O.2   231  GLY231     -0.2714
    140  N         30.2660  -11.9520   10.4000 N.am  232  VAL232     -0.1977
    141  CA        29.3690  -10.8440   10.3480 C.3   232  VAL232      0.1596
    142  C         29.2490  -10.3670    8.9420 C.2   232  VAL232      0.2287
    143  O         28.2180   -9.8760    8.6030 O.2   232  VAL232     -0.2864
    144  CB        29.7910   -9.6660   11.3150 C.3   232  VAL232      0.0276
    145  CG1       31.0460   -8.8650   10.7460 C.3   232  VAL232      0.0022
    146  CG2       28.4800   -8.6720   11.6270 C.3   232  VAL232      0.0022
    147  N         27.6270  -13.8880    6.7460 N.3   235  SER235     -0.1202
    148  CA        26.4520  -14.6210    7.2590 C.3   235  SER235      0.2020
    149  C         25.6190  -13.7690    8.2650 C.2   235  SER235      0.2618
    150  O         25.0260  -14.3520    9.2340 O.2   235  SER235     -0.2717
    151  CB        26.9100  -15.8980    7.9820 C.3   235  SER235      0.2103
    152  OG        28.0340  -16.4800    7.3490 O.3   235  SER235     -0.2182
    153  N         25.5530  -12.4390    8.0860 N.am  236  ASN236     -0.1974
    154  CA        24.7670  -11.6630    9.0150 C.3   236  ASN236      0.1688
    155  C         24.2880  -10.3400    8.4450 C.2   236  ASN236      0.2292
    156  O         23.1070  -10.1430    8.1700 O.2   236  ASN236     -0.2864
    157  CB        25.6020  -11.5280   10.2960 C.3   236  ASN236      0.1181
    158  CG        24.8180  -10.9580   11.4970 C.2   236  ASN236      0.2629
    159  OD1       23.6970  -10.4940   11.3510 O.2   236  ASN236     -0.2716
    160  ND2       25.4610  -10.9230   12.6410 N.am  236  ASN236     -0.0877
@<TRIPOS>BOND
     1   129   128   ar
     2   130   128   ar
     3   128   127    1
     4   123   124    1
     5   127   124    1
     6   124   125    1
     7   147   148    1
     8   148   151    1
     9   148   149    1
    10   125   126    2
    11   125   131   am
    12   152   151    1
    13   134   133    2
    14   131   132    1
    15   153   149   am
    16   153   154    1
    17   156   155    2
    18   149   150    2
    19   155   154    1
    20   143   142    2
    21   142   141    1
    22   154   157    1
    23   133   132    1
    24   133   136   am
    25   139   138    2
    26   132   135    1
    27   138   137    1
    28   138   140   am
    29   137   136    1
    30   157   158    1
    31   141   140    1
    32   141   144    1
    33   145   144    1
    34   121   119    1
    35   144   146    1
    36   159   158    2
    37   158   160   am
    38   117   118    2
    39   117   116    1
    40     1     2    1
    41   119   116    1
    42   119   120    1
    43   116   115    1
    44    12    13    1
    45    16    13    1
    46    16    17    1
    47   120   122    1
    48     2     5    1
    49     2     3    1
    50    13    14    1
    51    17    18    1
    52   115   110   am
    53     5     6    1
    54     3     4    2
    55   111   110    2
    56    58    57    2
    57    62    60    1
    58    69    68    1
    59   110   109    1
    60    14    15    2
    61    14    21   am
    62    18    20   am
    63    18    19    2
    64    61    60    1
    65    57    56    1
    66    59    60    1
    67    59    56    1
    68    68    70    1
    69    68    67    1
    70   114   112    1
    71     6     7   ar
    72     6     8   ar
    73     7     9   ar
    74    21    22    1
    75    56    55    1
    76   109   112    1
    77   109   108    1
    78    30    31    1
    79   112   113    1
    80     8    10   ar
    81    67    64    1
    82     9    11   ar
    83    31    34    1
    84    31    32    1
    85   108   103   am
    86    22    23    1
    87    22    25    1
    88    34    35    2
    89   104   103    2
    90    23    24    2
    91    63    64    1
    92   107   105    1
    93   103   102    1
    94    26    25    1
    95    26    27    1
    96    10    11   ar
    97    64    65    1
    98    32    33    2
    99    32    39   am
   100   105   102    1
   101   105   106    1
   102    29    27   am
   103    35    36    1
   104    53    52    2
   105   102   101    1
   106    27    28    2
   107    39    40    1
   108    36    37    1
   109    42    41    2
   110    65    66    2
   111    65    71   am
   112    41    40    1
   113    52    51    1
   114    74    73    2
   115    83    80    1
   116    83    84    1
   117    71    72    1
   118    40    43    1
   119    80    79    1
   120    80    81    1
   121    37    38    1
   122    54    51    1
   123    73    79   am
   124    73    72    1
   125    48    47    1
   126    86    84   am
   127    51    50    1
   128    87    81   am
   129    87    88    1
   130    43    44    1
   131    91    88    1
   132    84    85    2
   133    72    75    1
   134    45    44    1
   135    45    46    1
   136    81    82    2
   137    99    98    2
   138    88    89    1
   139    47    46    2
   140    47    49    1
   141   100    98   am
   142    75    76    1
   143    75    77    1
   144    98    97    1
   145    76    78    1
   146    89    92   am
   147    89    90    2
   148    92    93    1
   149    97    96    1
   150    96    93    1
   151    93    94    1
   152    94    95    2
