@<TRIPOS>MOLECULE
tmp/2jdoA01.pdb
 191 182 0 0 0
SMALL
GASTEIGER

@<TRIPOS>ATOM
      1  N         50.3550   32.5130  107.1890 N.3    13  LEU13      -0.1231
      2  CA        50.1770   32.4970  108.6500 C.3    13  LEU13       0.1693
      3  C         49.3960   31.2670  109.1110 C.2    13  LEU13       0.2593
      4  O         49.6240   30.7430  110.2040 O.2    13  LEU13      -0.2718
      5  CB        49.4470   33.7640  109.1180 C.3    13  LEU13       0.0284
      6  CG        50.1190   35.1070  108.8260 C.3    13  LEU13       0.0019
      7  CD1       49.1810   36.2770  109.1390 C.3    13  LEU13       0.0001
      8  CD2       51.4170   35.2390  109.6050 C.3    13  LEU13       0.0001
      9  N         48.4690   30.8090  108.2850 N.am   14  GLY14      -0.1942
     10  CA        47.5860   29.7130  108.6730 C.3    14  GLY14       0.2014
     11  C         46.8690   29.1550  107.4690 C.2    14  GLY14       0.2639
     12  O         46.7660   29.8150  106.4340 O.2    14  GLY14      -0.2714
     13  N         46.3520   27.9440  107.6240 N.am   15  LYS15      -0.1963
     14  CA        45.8360   27.1700  106.5090 C.3    15  LYS15       0.1728
     15  C         44.8500   26.1200  107.0320 C.2    15  LYS15       0.2616
     16  O         45.1360   25.4430  108.0170 O.2    15  LYS15      -0.2715
     17  CB        47.0170   26.4600  105.8500 C.3    15  LYS15       0.0311
     18  CG        46.8420   26.0660  104.4200 C.3    15  LYS15       0.0038
     19  CD        48.0250   25.2060  103.9950 C.3    15  LYS15       0.0206
     20  CE        48.1420   25.0880  102.4880 C.3    15  LYS15       0.1093
     21  NZ        48.7830   23.7970  102.0950 N.3    15  LYS15      -0.1314
     22  N         43.7010   25.9960  106.3770 N.am   16  GLY16      -0.1955
     23  CA        42.7590   24.9030  106.6460 C.3    16  GLY16       0.1869
     24  C         42.2540   24.3360  105.3350 C.2    16  GLY16       0.2309
     25  O         42.6820   24.7650  104.2630 O.2    16  GLY16      -0.2863
     26  N         39.3690   24.9210  104.0800 N.3    18  PHE18      -0.1227
     27  CA        38.5400   25.9110  103.3830 C.3    18  PHE18       0.1740
     28  C         39.1650   27.2900  103.2190 C.2    18  PHE18       0.2635
     29  O         38.4630   28.2520  102.8960 O.2    18  PHE18      -0.2714
     30  CB        37.1780   26.0050  104.0570 C.3    18  PHE18       0.0548
     31  CG        36.4400   24.7100  104.0570 C.ar   18  PHE18      -0.0202
     32  CD1       36.2690   23.9880  105.2290 C.ar   18  PHE18      -0.0042
     33  CD2       35.9550   24.1860  102.8730 C.ar   18  PHE18      -0.0042
     34  CE1       35.5980   22.7720  105.2220 C.ar   18  PHE18      -0.0003
     35  CE2       35.2850   22.9710  102.8590 C.ar   18  PHE18      -0.0003
     36  CZ        35.1130   22.2640  104.0380 C.ar   18  PHE18      -0.0000
     37  N         40.4770   27.3910  103.4050 N.am   19  GLY19      -0.1718
     38  CA        41.1680   28.6380  103.0980 C.2    19  GLY19       0.1480
     39  C         42.5720   28.7800  103.6480 C.2    19  GLY19       0.2820
     40  O         43.0870   27.8980  104.3480 O.2    19  GLY19      -0.2669
     41  N         43.1730   29.9220  103.3220 N.am   20  LYS20      -0.1929
     42  CA        44.5090   30.2900  103.7660 C.3    20  LYS20       0.1731
     43  C         44.4620   31.6970  104.3420 C.2    20  LYS20       0.2616
     44  O         43.6400   32.5190  103.9340 O.2    20  LYS20      -0.2715
     45  CB        45.4790   30.2800  102.5850 C.3    20  LYS20       0.0312
     46  CG        45.5260   28.9720  101.8330 C.3    20  LYS20       0.0038
     47  CD        46.6260   28.9850  100.7830 C.3    20  LYS20       0.0206
     48  CE        46.7590   27.6220  100.1130 C.3    20  LYS20       0.1093
     49  NZ        47.9920   27.5210   99.2810 N.3    20  LYS20      -0.1314
     50  N         45.3510   31.9740  105.2840 N.am   21  VAL21      -0.1977
     51  CA        45.4890   33.3200  105.8130 C.3    21  VAL21       0.1596
     52  C         46.9150   33.7700  105.5490 C.2    21  VAL21       0.2287
     53  O         47.8610   33.1050  105.9420 O.2    21  VAL21      -0.2864
     54  CB        45.1260   33.3850  107.3000 C.3    21  VAL21       0.0276
     55  CG1       45.4660   34.7580  107.8850 C.3    21  VAL21       0.0022
     56  CG2       43.6270   33.0790  107.4830 C.3    21  VAL21       0.0022
     57  N         45.9860   40.7090  107.8890 N.3    34  ALA34      -0.1245
     58  CA        45.8930   39.2850  107.6570 C.3    34  ALA34       0.1562
     59  C         44.7440   39.0650  106.6760 C.2    34  ALA34       0.2260
     60  O         43.6030   39.4360  106.9630 O.2    34  ALA34      -0.2867
     61  CB        45.6340   38.5610  108.9620 C.3    34  ALA34       0.0290
     62  N         42.4060   36.4940  104.7210 N.3    36  LYS36      -0.1245
     63  CA        41.8660   35.1550  104.5860 C.3    36  LYS36       0.1561
     64  C         41.3010   35.0270  103.1760 C.2    36  LYS36       0.2260
     65  O         40.4650   35.8430  102.7710 O.2    36  LYS36      -0.2867
     66  CB        40.7670   34.9170  105.6220 C.3    36  LYS36       0.0271
     67  CG        40.1020   33.5550  105.5270 C.3    36  LYS36       0.0035
     68  CD        39.3100   33.2220  106.7850 C.3    36  LYS36       0.0206
     69  CE        38.4400   32.0020  106.5810 C.3    36  LYS36       0.1093
     70  NZ        37.7310   31.5900  107.8300 N.3    36  LYS36      -0.1314
     71  N         38.4410   39.9090  116.4460 N.3    68  THR68      -0.1218
     72  CA        39.1230   40.2620  115.2160 C.3    68  THR68       0.1862
     73  C         38.2160   41.1840  114.4020 C.2    68  THR68       0.2287
     74  O         37.0270   40.8980  114.2370 O.2    68  THR68      -0.2866
     75  CB        39.4590   39.0060  114.4090 C.3    68  THR68       0.1770
     76  OG1       40.3850   38.2140  115.1580 O.3    68  THR68      -0.2211
     77  CG2       40.0560   39.3650  113.0230 C.3    68  THR68       0.0375
     78  N         41.6570   41.4470  107.4260 N.3    84  MET84      -0.1230
     79  CA        41.4250   41.6210  108.8520 C.3    84  MET84       0.1702
     80  C         42.6490   42.2000  109.5320 C.2    84  MET84       0.2592
     81  O         43.7620   42.1380  109.0070 O.2    84  MET84      -0.2718
     82  CB        41.1160   40.2650  109.4710 C.3    84  MET84       0.0401
     83  CG        39.9090   39.5970  108.8660 C.3    84  MET84       0.0596
     84  SD        39.7650   37.8650  109.3180 S.3    84  MET84      -0.1393
     85  CE        41.2500   37.1780  108.6000 C.3    84  MET84       0.0692
     86  N         42.4440   42.7550  110.7160 N.am   85  GLU85      -0.1966
     87  CA        43.5600   43.2560  111.4800 C.3    85  GLU85       0.1733
     88  C         44.4640   42.0740  111.8320 C.2    85  GLU85       0.2616
     89  O         43.9900   40.9810  112.1640 O.2    85  GLU85      -0.2715
     90  CB        43.0940   44.0420  112.7110 C.3    85  GLU85       0.0429
     91  CG        42.4560   43.2220  113.7920 C.3    85  GLU85       0.1163
     92  CD        41.6420   44.0580  114.7900 C.2    85  GLU85       0.3649
     93  OE1       41.8900   45.2830  114.9270 O.co2  85  GLU85      -0.2457
     94  OE2       40.7600   43.4650  115.4440 O.co2  85  GLU85      -0.2457
     95  N         45.7600   42.3110  111.7020 N.am   86  TYR86      -0.1960
     96  CA        46.7990   41.3070  111.9350 C.3    86  TYR86       0.1771
     97  C         47.1310   41.2110  113.4280 C.2    86  TYR86       0.2619
     98  O         47.4580   42.2200  114.0680 O.2    86  TYR86      -0.2715
     99  CB        48.0310   41.6960  111.1140 C.3    86  TYR86       0.0574
    100  CG        49.2920   40.9090  111.3790 C.ar   86  TYR86      -0.0198
    101  CD1       49.2870   39.5220  111.3940 C.ar   86  TYR86      -0.0009
    102  CD2       50.5000   41.5630  111.6030 C.ar   86  TYR86      -0.0009
    103  CE1       50.4570   38.8020  111.6370 C.ar   86  TYR86       0.0417
    104  CE2       51.6600   40.8590  111.8550 C.ar   86  TYR86       0.0417
    105  CZ        51.6390   39.4810  111.8560 C.ar   86  TYR86       0.1957
    106  OH        52.8000   38.7750  112.0960 O.3    86  TYR86      -0.2866
    107  N         47.0480   39.9960  113.9720 N.am   87  ALA87      -0.1977
    108  CA        47.4180   39.7290  115.3610 C.3    87  ALA87       0.1597
    109  C         48.8220   39.1300  115.3620 C.2    87  ALA87       0.2287
    110  O         48.9850   37.9480  115.1020 O.2    87  ALA87      -0.2864
    111  CB        46.4170   38.7680  115.9910 C.3    87  ALA87       0.0319
    112  N         48.5930   32.3810  117.9530 N.3    91  GLU91      -0.1245
    113  CA        47.5310   31.7170  118.7010 C.3    91  GLU91       0.1567
    114  C         47.9370   31.4850  120.1420 C.2    91  GLU91       0.2260
    115  O         49.0990   31.2000  120.4340 O.2    91  GLU91      -0.2867
    116  CB        47.2180   30.3600  118.0910 C.3    91  GLU91       0.0388
    117  CG        46.7430   30.4170  116.6690 C.3    91  GLU91       0.1160
    118  CD        46.7470   29.0720  115.9960 C.2    91  GLU91       0.3649
    119  OE1       47.1760   28.0710  116.6180 O.co2  91  GLU91      -0.2457
    120  OE2       46.3270   29.0290  114.8240 O.co2  91  GLU91      -0.2457
    121  N         38.2820   27.8200  121.6170 N.3   132  LYS132     -0.1245
    122  CA        39.4210   26.9260  121.7400 C.3   132  LYS132      0.1561
    123  C         40.7170   27.7000  121.5830 C.2   132  LYS132      0.2260
    124  O         40.7240   28.8030  121.0500 O.2   132  LYS132     -0.2867
    125  CB        39.3760   25.8040  120.7040 C.3   132  LYS132      0.0271
    126  CG        39.3180   26.2330  119.2520 C.3   132  LYS132      0.0035
    127  CD        39.3590   24.9610  118.4110 C.3   132  LYS132      0.0206
    128  CE        39.2860   25.1860  116.9390 C.3   132  LYS132      0.1093
    129  NZ        39.3420   23.8560  116.2520 N.3   132  LYS132     -0.1314
    130  N         43.2110   27.4990  119.5930 N.3   134  GLU134     -0.1231
    131  CA        43.5970   27.8630  118.2180 C.3   134  GLU134      0.1699
    132  C         42.8260   29.0710  117.6770 C.2   134  GLU134      0.2592
    133  O         43.2650   29.7060  116.7170 O.2   134  GLU134     -0.2718
    134  CB        43.4020   26.6750  117.2540 C.3   134  GLU134      0.0402
    135  CG        44.2730   25.4450  117.5720 C.3   134  GLU134      0.1161
    136  CD        43.5680   24.4210  118.4520 C.2   134  GLU134      0.3649
    137  OE1       42.7790   24.8390  119.3170 O.co2 134  GLU134     -0.2457
    138  OE2       43.7920   23.2020  118.2740 O.co2 134  GLU134     -0.2457
    139  N         41.6790   29.3740  118.2750 N.am  135  ASN135     -0.1974
    140  CA        40.8270   30.4900  117.8380 C.3   135  ASN135      0.1688
    141  C         40.9660   31.7260  118.7230 C.2   135  ASN135      0.2292
    142  O         40.1440   32.6520  118.6470 O.2   135  ASN135     -0.2864
    143  CB        39.3520   30.0680  117.8490 C.3   135  ASN135      0.1181
    144  CG        39.0080   29.0930  116.7460 C.2   135  ASN135      0.2629
    145  OD1       39.8100   28.8440  115.8580 O.2   135  ASN135     -0.2716
    146  ND2       37.8000   28.5400  116.7970 N.am  135  ASN135     -0.0877
    147  N         43.7970   34.5340  119.6480 N.3   137  MET137     -0.1245
    148  CA        45.1030   35.0740  119.2870 C.3   137  MET137      0.1570
    149  C         45.4890   36.1980  120.2220 C.2   137  MET137      0.2261
    150  O         44.6680   36.6700  121.0050 O.2   137  MET137     -0.2867
    151  CB        45.0750   35.5570  117.8450 C.3   137  MET137      0.0387
    152  CG        44.6880   34.4520  116.8720 C.3   137  MET137      0.0595
    153  SD        45.0350   34.9590  115.1930 S.3   137  MET137     -0.1393
    154  CE        46.8230   34.7750  115.2100 C.3   137  MET137      0.0692
    155  N         38.8590   34.6830  116.8310 N.3   147  THR147     -0.1203
    156  CA        38.8810   34.4970  115.3820 C.3   147  THR147      0.1994
    157  C         37.8810   33.4060  115.0130 C.2   147  THR147      0.2617
    158  O         37.2680   32.8120  115.8930 O.2   147  THR147     -0.2717
    159  CB        40.2750   34.0280  114.8940 C.3   147  THR147      0.1784
    160  OG1       40.5360   32.6990  115.3710 O.3   147  THR147     -0.2211
    161  CG2       41.3680   34.9660  115.3820 C.3   147  THR147      0.0376
    162  N         37.7340   33.1400  113.7140 N.am  148  ASP148     -0.1973
    163  CA        36.9600   31.9940  113.2140 C.3   148  ASP148      0.1709
    164  C         35.4800   32.0080  113.6210 C.2   148  ASP148      0.2293
    165  O         35.0380   31.1920  114.4430 O.2   148  ASP148     -0.2864
    166  CB        37.6330   30.6740  113.6270 C.3   148  ASP148      0.1436
    167  CG        38.9690   30.4530  112.9290 C.2   148  ASP148      0.3671
    168  OD1       39.0250   29.6370  111.9850 O.co2 148  ASP148     -0.2456
    169  OD2       39.9670   31.0990  113.3060 O.co2 148  ASP148     -0.2456
    170  N         54.2480   32.3330  114.8960 N.3   293  PHE293     -0.1241
    171  CA        53.5390   31.4140  114.0160 C.3   293  PHE293      0.1605
    172  C         54.4590   30.2350  113.7250 C.2   293  PHE293      0.2264
    173  O         55.6800   30.3840  113.7060 O.2   293  PHE293     -0.2867
    174  CB        53.1160   32.1430  112.7360 C.3   293  PHE293      0.0534
    175  CG        52.1760   33.2890  112.9960 C.ar  293  PHE293     -0.0203
    176  CD1       52.6660   34.5310  113.3720 C.ar  293  PHE293     -0.0042
    177  CD2       50.8070   33.1140  112.9150 C.ar  293  PHE293     -0.0042
    178  CE1       51.7930   35.5770  113.6500 C.ar  293  PHE293     -0.0003
    179  CE2       49.9420   34.1590  113.1870 C.ar  293  PHE293     -0.0003
    180  CZ        50.4400   35.3900  113.5450 C.ar  293  PHE293     -0.0000
    181  N         54.0100   26.7130  108.5760 N.3   297  PHE297     -0.1241
    182  CA        53.2790   27.5870  107.6520 C.3   297  PHE297      0.1605
    183  C         54.1710   28.6740  107.0530 C.2   297  PHE297      0.2264
    184  O         54.2740   28.8050  105.8340 O.2   297  PHE297     -0.2867
    185  CB        52.0780   28.2230  108.3580 C.3   297  PHE297      0.0534
    186  CG        51.1170   27.2240  108.9340 C.ar  297  PHE297     -0.0203
    187  CD1       51.0880   26.9750  110.3030 C.ar  297  PHE297     -0.0042
    188  CD2       50.2540   26.5180  108.1090 C.ar  297  PHE297     -0.0042
    189  CE1       50.2040   26.0450  110.8390 C.ar  297  PHE297     -0.0003
    190  CE2       49.3710   25.5870  108.6340 C.ar  297  PHE297     -0.0003
    191  CZ        49.3460   25.3450  109.9980 C.ar  297  PHE297     -0.0000
@<TRIPOS>BOND
     1    49    48    1
     2    48    47    1
     3    47    46    1
     4    46    45    1
     5    21    20    1
     6    20    19    1
     7    45    42    1
     8    65    64    2
     9    35    33   ar
    10    35    36   ar
    11    33    31   ar
    12    29    28    2
    13    38    37    2
    14    38    39    1
    15    64    63    1
    16    28    27    1
    17    28    37    1
    18    41    39   am
    19    41    42    1
    20    27    30    1
    21    27    26    1
    22    39    40    2
    23    42    43    1
    24    44    43    2
    25    19    18    1
    26    36    34   ar
    27    31    30    1
    28    31    32   ar
    29    25    24    2
    30    43    50   am
    31    18    17    1
    32    63    62    1
    33    63    66    1
    34    34    32   ar
    35    50    51    1
    36    24    23    1
    37    67    66    1
    38    67    68    1
    39    52    51    1
    40    52    53    2
    41    51    54    1
    42   184   183    2
    43    17    14    1
    44    22    23    1
    45    22    15   am
    46    12    11    2
    47    14    15    1
    48    14    13    1
    49    69    68    1
    50    69    70    1
    51    59    60    2
    52    59    58    1
    53    15    16    2
    54   183   182    1
    55     1     2    1
    56    54    56    1
    57    54    55    1
    58    78    79    1
    59    11    13   am
    60    11    10    1
    61   182   185    1
    62   182   181    1
    63    58    57    1
    64    58    61    1
    65   188   190   ar
    66   188   186   ar
    67     9    10    1
    68     9     3   am
    69   185   186    1
    70    85    84    1
    71   190   191   ar
    72     2     3    1
    73     2     5    1
    74     6     5    1
    75     6     7    1
    76     6     8    1
    77    79    82    1
    78    79    80    1
    79    83    84    1
    80    83    82    1
    81   186   187   ar
    82    81    80    2
    83     3     4    2
    84    80    86   am
    85   191   189   ar
    86   187   189   ar
    87    86    87    1
    88    99   100    1
    89    99    96    1
    90   100   101   ar
    91   100   102   ar
    92   101   103   ar
    93    87    88    1
    94    87    90    1
    95   102   104   ar
    96   103   105   ar
    97    95    88   am
    98    95    96    1
    99    88    89    2
   100   104   105   ar
   101   105   106    1
   102    96    97    1
   103   168   167   ar
   104    90    91    1
   105   174   175    1
   106   174   171    1
   107   177   175   ar
   108   177   179   ar
   109   167   169   ar
   110   167   166    1
   111   175   176   ar
   112    77    75    1
   113   179   180   ar
   114   163   164    1
   115   163   166    1
   116   163   162    1
   117   176   178   ar
   118    97   107   am
   119    97    98    2
   120   180   178   ar
   121   164   165    2
   122   173   172    2
   123   162   157   am
   124   172   171    1
   125    91    92    1
   126   107   108    1
   127   171   170    1
   128    74    73    2
   129    73    72    1
   130    75    76    1
   131    75    72    1
   132    92    93   ar
   133    92    94   ar
   134   120   118   ar
   135   159   160    1
   136   159   161    1
   137   159   156    1
   138   157   156    1
   139   157   158    2
   140   110   109    2
   141   153   154    1
   142   153   152    1
   143    72    71    1
   144   108   109    1
   145   108   111    1
   146   156   155    1
   147   145   144    2
   148   118   119   ar
   149   118   117    1
   150   129   128    1
   151   117   116    1
   152   133   132    2
   153   144   146   am
   154   144   143    1
   155   152   151    1
   156   128   127    1
   157   134   135    1
   158   134   131    1
   159   135   136    1
   160   132   131    1
   161   132   139   am
   162   140   143    1
   163   140   139    1
   164   140   141    1
   165   151   148    1
   166   112   113    1
   167   116   113    1
   168   131   130    1
   169   138   136   ar
   170   127   126    1
   171   136   137   ar
   172   142   141    2
   173   113   114    1
   174   126   125    1
   175   148   147    1
   176   148   149    1
   177   114   115    2
   178   149   150    2
   179   125   122    1
   180   124   123    2
   181   123   122    1
   182   121   122    1
