@<TRIPOS>MOLECULE
tmp/2jdrA01.pdb
 190 178 0 0 0
SMALL
GASTEIGER

@<TRIPOS>ATOM
      1  N         28.5500    2.2470   37.4780 N.3    13  LEU13      -0.1231
      2  CA        28.3400    2.1250   38.9250 C.3    13  LEU13       0.1693
      3  C         27.6940    0.8000   39.3190 C.2    13  LEU13       0.2592
      4  O         28.1260    0.1350   40.2730 O.2    13  LEU13      -0.2718
      5  CB        27.4670    3.2540   39.4340 C.3    13  LEU13       0.0284
      6  CG        27.9440    4.6640   39.1330 C.3    13  LEU13       0.0019
      7  CD1       27.0930    5.5850   39.9480 C.3    13  LEU13       0.0001
      8  CD2       29.4220    4.8600   39.4430 C.3    13  LEU13       0.0001
      9  N         26.6400    0.4350   38.6000 N.am   14  GLY14      -0.1957
     10  CA        25.9600   -0.8320   38.8440 C.3    14  GLY14       0.1869
     11  C         25.2950   -1.3790   37.6050 C.2    14  GLY14       0.2309
     12  O         24.9630   -0.6310   36.6760 O.2    14  GLY14      -0.2863
     13  N         19.9270   -7.3120   37.3860 N.3    17  THR17      -0.1203
     14  CA        18.4640   -7.4350   37.5010 C.3    17  THR17       0.1994
     15  C         17.7350   -6.1720   37.0280 C.2    17  THR17       0.2617
     16  O         17.0570   -6.1920   36.0140 O.2    17  THR17      -0.2717
     17  CB        18.0350   -7.8220   38.9780 C.3    17  THR17       0.1784
     18  OG1       16.6230   -7.6080   39.1750 O.3    17  THR17      -0.2211
     19  CG2       18.8110   -7.0060   40.0220 C.3    17  THR17       0.0376
     20  N         17.8980   -5.0790   37.7710 N.am   18  PHE18      -0.1975
     21  CA        17.3380   -3.7600   37.4080 C.3    18  PHE18       0.1639
     22  C         17.6460   -3.3830   35.9540 C.2    18  PHE18       0.2290
     23  O         16.7670   -3.4280   35.0910 O.2    18  PHE18      -0.2864
     24  CB        17.7800   -2.6410   38.4050 C.3    18  PHE18       0.0560
     25  CG        19.2790   -2.5640   38.6600 C.ar   18  PHE18      -0.0200
     26  CD1       20.0200   -1.5010   38.1740 C.ar   18  PHE18      -0.0042
     27  CD2       19.9370   -3.5410   39.3910 C.ar   18  PHE18      -0.0042
     28  CE1       21.3950   -1.4300   38.3870 C.ar   18  PHE18      -0.0003
     29  CE2       21.3080   -3.4740   39.6140 C.ar   18  PHE18      -0.0003
     30  CZ        22.0350   -2.4170   39.1160 C.ar   18  PHE18      -0.0000
     31  N         23.1650    1.2030   35.8510 N.3    21  VAL21      -0.1245
     32  CA        23.3640    2.5860   36.2850 C.3    21  VAL21       0.1561
     33  C         24.8250    2.9380   36.0370 C.2    21  VAL21       0.2260
     34  O         25.7260    2.1310   36.2610 O.2    21  VAL21      -0.2867
     35  CB        22.8500    2.9100   37.7420 C.3    21  VAL21       0.0252
     36  CG1       22.5070    1.6660   38.5190 C.3    21  VAL21       0.0019
     37  CG2       23.8500    3.7840   38.5110 C.3    21  VAL21       0.0019
     38  N         23.6660    9.8780   38.0990 N.3    34  ALA34      -0.1245
     39  CA        23.5730    8.4580   37.9010 C.3    34  ALA34       0.1562
     40  C         22.3540    8.2770   37.0050 C.2    34  ALA34       0.2260
     41  O         21.2770    8.8420   37.2760 O.2    34  ALA34      -0.2867
     42  CB        23.4070    7.7400   39.2300 C.3    34  ALA34       0.0290
     43  N         20.0090    5.4920   35.2410 N.3    36  LYS36      -0.1245
     44  CA        19.5220    4.1240   35.1450 C.3    36  LYS36       0.1561
     45  C         19.0190    3.9210   33.7130 C.2    36  LYS36       0.2260
     46  O         18.1360    4.6440   33.2480 O.2    36  LYS36      -0.2867
     47  CB        18.3940    3.9150   36.1620 C.3    36  LYS36       0.0271
     48  CG        17.8850    2.5030   36.3230 C.3    36  LYS36       0.0035
     49  CD        16.6040    2.5280   37.1460 C.3    36  LYS36       0.0206
     50  CE        16.0730    1.1390   37.4130 C.3    36  LYS36       0.1093
     51  NZ        15.0930    1.1820   38.5320 N.3    36  LYS36      -0.1314
     52  N          7.7620    3.6840   39.1170 N.3    55  GLU55      -0.1245
     53  CA         9.0100    4.2720   39.5480 C.3    55  GLU55       0.1567
     54  C          9.1280    5.7430   39.1140 C.2    55  GLU55       0.2260
     55  O          9.4530    6.6120   39.9270 O.2    55  GLU55      -0.2867
     56  CB        10.1710    3.4720   39.0070 C.3    55  GLU55       0.0388
     57  CG        11.4720    4.0850   39.3970 C.3    55  GLU55       0.1160
     58  CD        12.5850    3.1190   39.3240 C.2    55  GLU55       0.3649
     59  OE1       12.4960    2.2170   38.4610 O.co2  55  GLU55      -0.2457
     60  OE2       13.5430    3.2790   40.1150 O.co2  55  GLU55      -0.2457
     61  N         16.4830    9.6110   46.6990 N.3    68  THR68      -0.1218
     62  CA        17.0710   10.0020   45.4250 C.3    68  THR68       0.1862
     63  C         16.0820   10.8280   44.6190 C.2    68  THR68       0.2287
     64  O         15.0070   10.3450   44.2900 O.2    68  THR68      -0.2866
     65  CB        17.4030    8.7760   44.5800 C.3    68  THR68       0.1770
     66  OG1       18.0630    7.8020   45.3910 O.3    68  THR68      -0.2211
     67  CG2       18.3050    9.1700   43.4140 C.3    68  THR68       0.0375
     68  N         19.3320   10.7730   37.7320 N.3    84  MET84      -0.1230
     69  CA        19.0460   11.0210   39.1360 C.3    84  MET84       0.1702
     70  C         20.2850   11.5870   39.7910 C.2    84  MET84       0.2592
     71  O         21.3980   11.4200   39.2580 O.2    84  MET84      -0.2718
     72  CB        18.6140    9.7150   39.7810 C.3    84  MET84       0.0401
     73  CG        17.3140    9.1630   39.1920 C.3    84  MET84       0.0596
     74  SD        17.1750    7.3750   39.2270 S.3    84  MET84      -0.1393
     75  CE        18.7140    6.7900   38.4850 C.3    84  MET84       0.0692
     76  N         20.1000   12.2790   40.9160 N.am   85  GLU85      -0.1966
     77  CA        21.2400   12.7750   41.6690 C.3    85  GLU85       0.1733
     78  C         22.2020   11.6290   41.9830 C.2    85  GLU85       0.2616
     79  O         21.8010   10.4690   42.1380 O.2    85  GLU85      -0.2715
     80  CB        20.8300   13.5610   42.9260 C.3    85  GLU85       0.0429
     81  CG        20.0050   12.8120   43.9690 C.3    85  GLU85       0.1163
     82  CD        19.3210   13.7530   44.9700 C.2    85  GLU85       0.3649
     83  OE1       19.4450   14.9930   44.8190 O.co2  85  GLU85      -0.2457
     84  OE2       18.6370   13.2530   45.8940 O.co2  85  GLU85      -0.2457
     85  N         23.4840   11.9490   41.9790 N.am   86  TYR86      -0.1960
     86  CA        24.5210   10.9520   42.1280 C.3    86  TYR86       0.1771
     87  C         24.8540   10.8360   43.6190 C.2    86  TYR86       0.2619
     88  O         25.0160   11.8490   44.3170 O.2    86  TYR86      -0.2715
     89  CB        25.7440   11.3730   41.3190 C.3    86  TYR86       0.0574
     90  CG        26.9590   10.4960   41.5110 C.ar   86  TYR86      -0.0198
     91  CD1       26.9020    9.1280   41.2860 C.ar   86  TYR86      -0.0009
     92  CD2       28.1630   11.0440   41.9050 C.ar   86  TYR86      -0.0009
     93  CE1       28.0080    8.3330   41.4760 C.ar   86  TYR86       0.0417
     94  CE2       29.2700   10.2700   42.0750 C.ar   86  TYR86       0.0417
     95  CZ        29.2020    8.9180   41.8690 C.ar   86  TYR86       0.1957
     96  OH        30.3520    8.1680   42.0660 O.3    86  TYR86      -0.2866
     97  N         24.9320    9.6020   44.1140 N.am   87  ALA87      -0.1977
     98  CA        25.3180    9.3790   45.4970 C.3    87  ALA87       0.1597
     99  C         26.7550    8.8620   45.4790 C.2    87  ALA87       0.2287
    100  O         26.9900    7.6790   45.2560 O.2    87  ALA87      -0.2864
    101  CB        24.3550    8.4020   46.1800 C.3    87  ALA87       0.0319
    102  N         26.9180    2.4080   48.5310 N.3    91  GLU91      -0.1245
    103  CA        25.7940    1.9240   49.3360 C.3    91  GLU91       0.1567
    104  C         26.2910    1.2910   50.6140 C.2    91  GLU91       0.2260
    105  O         27.4510    0.8930   50.7290 O.2    91  GLU91      -0.2867
    106  CB        24.8420    0.9480   48.5750 C.3    91  GLU91       0.0388
    107  CG        25.4460    0.0710   47.4590 C.3    91  GLU91       0.1160
    108  CD        26.3660   -1.0470   47.9650 C.2    91  GLU91       0.3649
    109  OE1       26.5170   -1.1910   49.1980 O.co2  91  GLU91      -0.2457
    110  OE2       26.9290   -1.7970   47.1180 O.co2  91  GLU91      -0.2457
    111  N         16.2600   -2.4700   51.7250 N.3   132  LYS132     -0.1245
    112  CA        17.4000   -3.3720   51.9120 C.3   132  LYS132      0.1561
    113  C         18.6830   -2.5830   51.8250 C.2   132  LYS132      0.2260
    114  O         18.6900   -1.5480   51.1860 O.2   132  LYS132     -0.2867
    115  CB        17.4260   -4.4900   50.8860 C.3   132  LYS132      0.0271
    116  CG        17.1720   -4.0950   49.4780 C.3   132  LYS132      0.0035
    117  CD        17.0010   -5.3630   48.6120 C.3   132  LYS132      0.0206
    118  CE        17.3350   -5.1220   47.1520 C.3   132  LYS132      0.1093
    119  NZ        16.9660   -6.2580   46.2430 N.3   132  LYS132     -0.1314
    120  N         21.3370   -2.7650   50.0880 N.3   134  GLU134     -0.1231
    121  CA        21.7540   -2.5650   48.6990 C.3   134  GLU134      0.1699
    122  C         21.0880   -1.3180   48.0620 C.2   134  GLU134      0.2592
    123  O         21.6560   -0.6810   47.1520 O.2   134  GLU134     -0.2718
    124  CB        21.4270   -3.8230   47.8650 C.3   134  GLU134      0.0402
    125  CG        22.2980   -5.0610   48.1290 C.3   134  GLU134      0.1161
    126  CD        21.6890   -6.1540   49.0740 C.2   134  GLU134      0.3649
    127  OE1       21.0210   -5.8710   50.1430 O.co2 134  GLU134     -0.2457
    128  OE2       21.9370   -7.3440   48.7440 O.co2 134  GLU134     -0.2457
    129  N         19.9050   -0.9640   48.5550 N.am  135  ASN135     -0.1974
    130  CA        19.1500    0.1770   48.0130 C.3   135  ASN135      0.1688
    131  C         19.3830    1.4400   48.7910 C.2   135  ASN135      0.2292
    132  O         18.7880    2.4710   48.4800 O.2   135  ASN135     -0.2864
    133  CB        17.6510   -0.1260   48.0130 C.3   135  ASN135      0.1181
    134  CG        17.2730   -1.1880   47.0000 C.2   135  ASN135      0.2629
    135  OD1       18.1210   -1.6830   46.2720 O.2   135  ASN135     -0.2716
    136  ND2       15.9900   -1.5020   46.9200 N.am  135  ASN135     -0.0877
    137  N         21.9450    4.0590   49.4450 N.3   137  MET137     -0.1245
    138  CA        23.1970    4.7210   49.0520 C.3   137  MET137      0.1570
    139  C         23.5100    5.8220   50.0540 C.2   137  MET137      0.2261
    140  O         22.6330    6.2510   50.7990 O.2   137  MET137     -0.2867
    141  CB        23.0760    5.3500   47.6600 C.3   137  MET137      0.0387
    142  CG        22.7430    4.3810   46.5430 C.3   137  MET137      0.0595
    143  SD        24.0750    3.2560   46.1570 S.3   137  MET137     -0.1393
    144  CE        23.1350    1.9720   45.2810 C.3   137  MET137      0.0692
    145  N         20.6020    7.8930   50.9510 N.3   145  LYS145     -0.1245
    146  CA        19.8040    8.1330   49.7680 C.3   145  LYS145      0.1561
    147  C         19.1880    6.7990   49.4170 C.2   145  LYS145      0.2260
    148  O         19.9080    5.8490   49.0630 O.2   145  LYS145     -0.2867
    149  CB        20.6680    8.6590   48.6010 C.3   145  LYS145      0.0271
    150  CG        21.0950   10.1240   48.6990 C.3   145  LYS145      0.0035
    151  CD        19.8760   11.0280   48.6580 C.3   145  LYS145      0.0206
    152  CE        20.2110   12.4900   48.3630 C.3   145  LYS145      0.1093
    153  NZ        18.9810   13.3540   48.4220 N.3   145  LYS145     -0.1314
    154  N         17.0270    4.4350   47.0740 N.3   147  THR147     -0.1203
    155  CA        17.2560    4.2450   45.6780 C.3   147  THR147      0.1994
    156  C         16.3930    3.0550   45.2380 C.2   147  THR147      0.2617
    157  O         16.0380    2.2320   46.0670 O.2   147  THR147     -0.2717
    158  CB        18.7500    3.9330   45.5030 C.3   147  THR147      0.1784
    159  OG1       19.2920    4.7730   44.4930 O.3   147  THR147     -0.2211
    160  CG2       18.9800    2.4910   45.1880 C.3   147  THR147      0.0376
    161  N         16.0330    3.0080   43.9580 N.am  148  ASP148     -0.1973
    162  CA        15.2140    1.9200   43.3540 C.3   148  ASP148      0.1709
    163  C         13.7520    1.8790   43.8520 C.2   148  ASP148      0.2293
    164  O         13.3990    1.1500   44.8020 O.2   148  ASP148     -0.2864
    165  CB        15.8860    0.5580   43.5120 C.3   148  ASP148      0.1436
    166  CG        15.3140   -0.5070   42.5750 C.2   148  ASP148      0.3671
    167  OD1       14.3690   -0.2250   41.7910 O.co2 148  ASP148     -0.2456
    168  OD2       15.8350   -1.6470   42.6300 O.co2 148  ASP148     -0.2456
    169  N         32.3940    1.9140   45.2510 N.3   293  PHE293     -0.1241
    170  CA        31.7000    0.9600   44.4210 C.3   293  PHE293      0.1605
    171  C         32.6820   -0.1420   44.1160 C.2   293  PHE293      0.2264
    172  O         33.8940    0.0790   44.1720 O.2   293  PHE293     -0.2867
    173  CB        31.2350    1.6340   43.1410 C.3   293  PHE293      0.0534
    174  CG        30.2630    2.7280   43.3780 C.ar  293  PHE293     -0.0203
    175  CD1       30.7040    4.0120   43.6920 C.ar  293  PHE293     -0.0042
    176  CD2       28.8950    2.4710   43.3380 C.ar  293  PHE293     -0.0042
    177  CE1       29.7970    5.0510   43.9260 C.ar  293  PHE293     -0.0003
    178  CE2       27.9810    3.4880   43.5700 C.ar  293  PHE293     -0.0003
    179  CZ        28.4410    4.7910   43.8670 C.ar  293  PHE293     -0.0000
    180  N         32.4590   -3.9390   39.0370 N.3   297  PHE297     -0.1241
    181  CA        31.4760   -3.3270   38.1360 C.3   297  PHE297      0.1605
    182  C         32.0430   -2.1090   37.4030 C.2   297  PHE297      0.2264
    183  O         31.7730   -1.9310   36.2180 O.2   297  PHE297     -0.2867
    184  CB        30.2040   -2.9250   38.8980 C.3   297  PHE297      0.0534
    185  CG        29.5020   -4.0750   39.5780 C.ar  297  PHE297     -0.0203
    186  CD1       29.9120   -4.5070   40.8310 C.ar  297  PHE297     -0.0042
    187  CD2       28.4230   -4.7090   38.9780 C.ar  297  PHE297     -0.0042
    188  CE1       29.2720   -5.5620   41.4830 C.ar  297  PHE297     -0.0003
    189  CE2       27.7730   -5.7680   39.6170 C.ar  297  PHE297     -0.0003
    190  CZ        28.2030   -6.1960   40.8760 C.ar  297  PHE297     -0.0000
@<TRIPOS>BOND
     1    46    45    2
     2    45    44    1
     3    23    22    2
     4    44    43    1
     5    44    47    1
     6    31    32    1
     7    22    21    1
     8    16    15    2
     9    33    34    2
    10    33    32    1
    11    47    48    1
    12   183   182    2
    13    32    35    1
    14    48    49    1
    15    12    11    2
    16    40    41    2
    17    40    39    1
    18    15    14    1
    19    15    20   am
    20    49    50    1
    21    13    14    1
    22   182   181    1
    23    21    20    1
    24    21    24    1
    25    50    51    1
    26     1     2    1
    27    14    17    1
    28    11    10    1
    29    68    69    1
    30    35    37    1
    31    35    36    1
    32    39    38    1
    33    39    42    1
    34   181   184    1
    35   181   180    1
    36    26    28   ar
    37    26    25   ar
    38    28    30   ar
    39    24    25    1
    40    59    58   ar
    41    75    74    1
    42     9    10    1
    43     9     3   am
    44    25    27   ar
    45   184   185    1
    46     2     3    1
    47     2     5    1
    48    17    18    1
    49    17    19    1
    50   187   185   ar
    51   187   189   ar
    52    56    57    1
    53    56    53    1
    54    54    53    1
    55    54    55    2
    56    30    29   ar
    57    52    53    1
    58     6     5    1
    59     6     8    1
    60     6     7    1
    61    69    72    1
    62    69    70    1
    63    73    74    1
    64    73    72    1
    65    71    70    2
    66     3     4    2
    67    58    57    1
    68    58    60   ar
    69    27    29   ar
    70   185   186   ar
    71   189   190   ar
    72    70    76   am
    73   186   188   ar
    74   190   188   ar
    75    76    77    1
    76    91    93   ar
    77    91    90   ar
    78    89    90    1
    79    89    86    1
    80    93    95   ar
    81    90    92   ar
    82    77    78    1
    83    77    80    1
    84   167   166   ar
    85    95    96    1
    86    95    94   ar
    87    92    94   ar
    88    85    78   am
    89    85    86    1
    90    78    79    2
    91    86    87    1
    92   166   168   ar
    93   166   165    1
    94    80    81    1
    95   173   174    1
    96   173   170    1
    97   176   174   ar
    98   176   178   ar
    99   162   165    1
   100   162   163    1
   101   162   161    1
   102   174   175   ar
   103    67    65    1
   104   178   179   ar
   105    87    97   am
   106    87    88    2
   107   175   177   ar
   108   163   164    2
   109   179   177   ar
   110   161   156   am
   111    81    82    1
   112    97    98    1
   113   171   172    2
   114   171   170    1
   115    64    63    2
   116   170   169    1
   117   159   158    1
   118    65    66    1
   119    65    62    1
   120    63    62    1
   121    83    82   ar
   122    82    84   ar
   123   160   158    1
   124   156   155    1
   125   156   157    2
   126   100    99    2
   127   144   143    1
   128    62    61    1
   129    99    98    1
   130    98   101    1
   131   158   155    1
   132   155   154    1
   133   143   142    1
   134   119   118    1
   135   135   134    2
   136   142   141    1
   137   136   134   am
   138   134   133    1
   139   110   108   ar
   140   123   122    2
   141   118   117    1
   142   107   108    1
   143   107   106    1
   144   141   138    1
   145   124   125    1
   146   124   121    1
   147   108   109   ar
   148   130   133    1
   149   130   129    1
   150   130   131    1
   151   122   129   am
   152   122   121    1
   153   125   126    1
   154   152   153    1
   155   152   151    1
   156   132   131    2
   157   102   103    1
   158   106   103    1
   159   149   150    1
   160   149   146    1
   161   117   116    1
   162   151   150    1
   163   121   120    1
   164   128   126   ar
   165   138   137    1
   166   138   139    1
   167   148   147    2
   168   126   127   ar
   169   103   104    1
   170   147   146    1
   171   116   115    1
   172   146   145    1
   173   139   140    2
   174   104   105    2
   175   115   112    1
   176   114   113    2
   177   111   112    1
   178   113   112    1
