@<TRIPOS>MOLECULE
tmp/2je3A00.pdb
 187 181 0 0 0
SMALL
GASTEIGER

@<TRIPOS>ATOM
      1  N         17.4620   28.3240    4.6390 N.3    27  GLN27      -0.1245
      2  CA        18.1180   29.4860    5.1950 C.3    27  GLN27       0.1566
      3  C         19.3170   29.8440    4.3390 C.2    27  GLN27       0.2260
      4  O         19.8510   29.0030    3.6170 O.2    27  GLN27      -0.2867
      5  CB        18.5550   29.2280    6.6310 C.3    27  GLN27       0.0367
      6  CG        17.3910   29.0220    7.6340 C.3    27  GLN27       0.0905
      7  CD        16.8570   27.6280    7.5720 C.2    27  GLN27       0.2608
      8  OE1       17.6140   26.6450    7.7230 O.2    27  GLN27      -0.2717
      9  NE2       15.5660   27.5100    7.3620 N.am   27  GLN27      -0.0878
     10  N         21.1330   26.5460    3.3220 N.3    34  ARG34      -0.1245
     11  CA        20.8730   25.3610    4.1080 C.3    34  ARG34       0.1563
     12  C         19.4370   24.9440    3.9300 C.2    34  ARG34       0.2260
     13  O         18.5220   25.7480    3.9950 O.2    34  ARG34      -0.2867
     14  CB        21.1420   25.6080    5.5890 C.3    34  ARG34       0.0307
     15  CG        22.6360   25.6490    5.8710 C.3    34  ARG34       0.0489
     16  CD        22.8900   25.9120    7.3200 C.3    34  ARG34       0.2205
     17  NE        22.3390   27.2010    7.6880 N.pl3  34  ARG34      -0.0865
     18  CZ        22.8040   28.3570    7.2420 C.cat  34  ARG34       0.5346
     19  NH1       22.2220   29.4900    7.6240 N.pl3  34  ARG34       0.1354
     20  NH2       23.8520   28.3790    6.4180 N.pl3  34  ARG34       0.1354
     21  N         16.4450   22.1560    5.2230 N.3    36  VAL36      -0.1245
     22  CA        16.1460   21.3310    6.3890 C.3    36  VAL36       0.1561
     23  C         14.9980   20.3980    6.0480 C.2    36  VAL36       0.2260
     24  O         13.9790   20.8590    5.5280 O.2    36  VAL36      -0.2867
     25  CB        15.7470   22.2040    7.6170 C.3    36  VAL36       0.0252
     26  CG1       15.4390   21.3320    8.8610 C.3    36  VAL36       0.0019
     27  CG2       16.8540   23.2250    7.9540 C.3    36  VAL36       0.0019
     28  N         15.7790   14.6760   11.6620 N.3    58  THR58      -0.1218
     29  CA        15.9390   15.8830   10.8280 C.3    58  THR58       0.1862
     30  C         17.3090   15.8390   10.1280 C.2    58  THR58       0.2287
     31  O         18.2780   15.2650   10.6700 O.2    58  THR58      -0.2866
     32  CB        15.7670   17.2380   11.6070 C.3    58  THR58       0.1770
     33  OG1       17.0080   17.6350   12.2160 O.3    58  THR58      -0.2211
     34  CG2       14.6600   17.1690   12.6440 C.3    58  THR58       0.0375
     35  N         19.9850   18.5030    7.8890 N.3    60  LYS60      -0.1245
     36  CA        20.3170   19.8110    7.3710 C.3    60  LYS60       0.1561
     37  C         21.4150   19.6570    6.3190 C.2    60  LYS60       0.2260
     38  O         22.5450   19.2090    6.6300 O.2    60  LYS60      -0.2867
     39  CB        20.7620   20.7380    8.5040 C.3    60  LYS60       0.0271
     40  CG        21.1800   22.1110    8.0050 C.3    60  LYS60       0.0035
     41  CD        21.2310   23.1150    9.1520 C.3    60  LYS60       0.0206
     42  CE        19.8360   23.6690    9.4040 C.3    60  LYS60       0.1093
     43  NZ        19.7580   24.5640   10.6380 N.3    60  LYS60      -0.1314
     44  N         24.3490   17.5160    8.0270 N.3    83  GLU83      -0.1231
     45  CA        24.1670   17.2600    9.4630 C.3    83  GLU83       0.1699
     46  C         22.8040   16.6150    9.6650 C.2    83  GLU83       0.2592
     47  O         21.9370   16.7070    8.7810 O.2    83  GLU83      -0.2718
     48  CB        24.2260   18.5630   10.2590 C.3    83  GLU83       0.0402
     49  CG        25.4720   19.3600   10.0310 C.3    83  GLU83       0.1161
     50  CD        25.3750   20.7300   10.6640 C.2    83  GLU83       0.3649
     51  OE1       24.6010   21.5690   10.1490 O.co2  83  GLU83      -0.2457
     52  OE2       26.0690   20.9530   11.6760 O.co2  83  GLU83      -0.2457
     53  N         22.6190   15.9580   10.8110 N.am   84  ALA84      -0.1966
     54  CA        21.3380   15.3380   11.1710 C.3    84  ALA84       0.1728
     55  C         21.1360   15.3880   12.6700 C.2    84  ALA84       0.2616
     56  O         22.0930   15.6030   13.4460 O.2    84  ALA84      -0.2715
     57  CB        21.2540   13.8870   10.6770 C.3    84  ALA84       0.0334
     58  N         19.8890   15.2260   13.0800 N.am   85  SER85      -0.1950
     59  CA        19.5650   15.0560   14.4920 C.3    85  SER85       0.1924
     60  C         18.5300   13.9440   14.5930 C.2    85  SER85       0.2314
     61  O         17.7020   13.7600   13.6740 O.2    85  SER85      -0.2863
     62  CB        19.0840   16.3720   15.1450 C.3    85  SER85       0.2116
     63  OG        17.8870   16.8390   14.5430 O.3    85  SER85      -0.2180
     64  N         23.0490   14.5040   17.8950 N.3   101  PHE101     -0.1227
     65  CA        23.4650   15.3580   16.7910 C.3   101  PHE101      0.1736
     66  C         24.6760   14.7780   16.0580 C.2   101  PHE101      0.2595
     67  O         25.5590   14.1730   16.6950 O.2   101  PHE101     -0.2718
     68  CB        23.8050   16.7510   17.3190 C.3   101  PHE101      0.0547
     69  CG        22.5890   17.5260   17.7740 C.ar  101  PHE101     -0.0202
     70  CD1       22.0570   17.3400   19.0570 C.ar  101  PHE101     -0.0042
     71  CD2       21.9650   18.4280   16.9080 C.ar  101  PHE101     -0.0042
     72  CE1       20.8970   18.0440   19.4700 C.ar  101  PHE101     -0.0003
     73  CE2       20.8270   19.1230   17.3110 C.ar  101  PHE101     -0.0003
     74  CZ        20.2900   18.9280   18.5740 C.ar  101  PHE101     -0.0000
     75  N         24.7370   15.0190   14.7470 N.am  102  TYR102     -0.1962
     76  CA        25.6880   14.3470   13.8600 C.3   102  TYR102      0.1771
     77  C         26.1690   15.2060   12.7170 C.2   102  TYR102      0.2619
     78  O         25.3990   15.9630   12.1140 O.2   102  TYR102     -0.2715
     79  CB        25.0130   13.1230   13.2120 C.3   102  TYR102      0.0574
     80  CG        24.4720   12.0880   14.1740 C.ar  102  TYR102     -0.0198
     81  CD1       23.1560   12.1550   14.6510 C.ar  102  TYR102     -0.0009
     82  CD2       25.2830   11.0320   14.6090 C.ar  102  TYR102     -0.0009
     83  CE1       22.6560   11.1970   15.5420 C.ar  102  TYR102      0.0417
     84  CE2       24.8000   10.0720   15.4950 C.ar  102  TYR102      0.0417
     85  CZ        23.4770   10.1670   15.9630 C.ar  102  TYR102      0.1957
     86  OH        22.9760    9.2170   16.8130 O.3   102  TYR102     -0.2866
     87  N         27.4320   15.0000   12.3580 N.am  103  ILE103     -0.1977
     88  CA        27.9860   15.5360   11.1480 C.3   103  ILE103      0.1596
     89  C         28.3990   14.3900   10.2340 C.2   103  ILE103      0.2287
     90  O         29.2110   13.5080   10.6280 O.2   103  ILE103     -0.2864
     91  CB        29.2340   16.3800   11.4360 C.3   103  ILE103      0.0276
     92  CG1       28.8290   17.6700   12.1630 C.3   103  ILE103      0.0022
     93  CG2       29.9690   16.6890   10.1350 C.3   103  ILE103      0.0022
     94  CD1       30.0540   18.4830   12.6500 C.3   103  ILE103      0.0001
     95  N         27.5140   13.6780   18.6790 N.3   118  LEU118     -0.1245
     96  CA        28.4710   14.6800   19.0900 C.3   118  LEU118      0.1561
     97  C         28.2090   15.1960   20.5150 C.2   118  LEU118      0.2260
     98  O         27.0660   15.1340   21.0020 O.2   118  LEU118     -0.2867
     99  CB        28.5580   15.8040   18.0550 C.3   118  LEU118      0.0270
    100  CG        29.0090   15.3880   16.6540 C.3   118  LEU118      0.0019
    101  CD1       28.8000   16.5070   15.6670 C.3   118  LEU118      0.0001
    102  CD2       30.4900   14.8830   16.6250 C.3   118  LEU118      0.0001
    103  N         28.2850   20.2580   24.1490 N.3   121  ALA121     -0.1231
    104  CA        28.8300   21.6110   23.9860 C.3   121  ALA121      0.1694
    105  C         28.9300   21.9970   22.5200 C.2   121  ALA121      0.2592
    106  O         28.8330   23.1820   22.1660 O.2   121  ALA121     -0.2718
    107  CB        30.2030   21.7410   24.6550 C.3   121  ALA121      0.0304
    108  N         29.1180   20.9900   21.6680 N.am  122  GLU122     -0.1966
    109  CA        29.3290   21.2150   20.2520 C.3   122  GLU122      0.1733
    110  C         28.0130   21.5170   19.5130 C.2   122  GLU122      0.2616
    111  O         28.0190   22.3030   18.5640 O.2   122  GLU122     -0.2715
    112  CB        29.9950   19.9980   19.6030 C.3   122  GLU122      0.0429
    113  CG        30.4280   20.2710   18.1750 C.3   122  GLU122      0.1163
    114  CD        31.2670   19.1570   17.5700 C.2   122  GLU122      0.3649
    115  OE1       31.5880   18.1780   18.2830 O.co2 122  GLU122     -0.2457
    116  OE2       31.6100   19.2750   16.3780 O.co2 122  GLU122     -0.2457
    117  N         26.9210   20.8650   19.9190 N.am  123  CYS123     -0.1968
    118  CA        25.6540   20.9450   19.1440 C.3   123  CYS123      0.1712
    119  C         24.4190   21.1760   19.9900 C.2   123  CYS123      0.2296
    120  O         23.7730   22.2160   19.8460 O.2   123  CYS123     -0.2864
    121  CB        25.4470   19.6770   18.3040 C.3   123  CYS123      0.0983
    122  SG        26.8650   19.2160   17.2820 S.3   123  CYS123     -0.0798
    123  N         23.5960   24.7330   22.0030 N.3   126  CYS126     -0.1221
    124  CA        22.9730   25.8490   21.3010 C.3   126  CYS126      0.1808
    125  C         21.4910   25.6200   21.0180 C.2   126  CYS126      0.2601
    126  O         20.6600   26.5180   21.2090 O.2   126  CYS126     -0.2717
    127  CB        23.7020   26.1540   20.0110 C.3   126  CYS126      0.0970
    128  SG        22.9750   27.5620   19.1120 S.3   126  CYS126     -0.0800
    129  N         21.1760   24.4170   20.5460 N.am  127  HIS127     -0.1975
    130  CA        19.8000   24.0400   20.2350 C.3   127  HIS127      0.1656
    131  C         18.8690   24.1400   21.4420 C.2   127  HIS127      0.2291
    132  O         17.8020   24.7470   21.3470 O.2   127  HIS127     -0.2864
    133  CB        19.7550   22.6500   19.5710 C.3   127  HIS127      0.0771
    134  CG        20.1780   22.6700   18.1250 C.ar  127  HIS127      0.0820
    135  ND1       19.2990   22.4190   17.0900 N.ar  127  HIS127     -0.2267
    136  CD2       21.3820   22.9080   17.5430 C.ar  127  HIS127      0.1154
    137  CE1       19.9350   22.5270   15.9350 C.ar  127  HIS127      0.1986
    138  NE2       21.2030   22.8190   16.1780 N.ar  127  HIS127     -0.2212
    139  N         14.1710   21.5690   20.8150 N.3   135  MET135     -0.1230
    140  CA        15.5250   21.5530   20.2670 C.3   135  MET135      0.1702
    141  C         15.6210   21.6280   18.7440 C.2   135  MET135      0.2592
    142  O         16.6880   21.4000   18.1630 O.2   135  MET135     -0.2718
    143  CB        16.3520   20.4100   20.8780 C.3   135  MET135      0.0401
    144  CG        16.6760   20.7550   22.3250 C.3   135  MET135      0.0596
    145  SD        17.3190   19.4000   23.2780 S.3   135  MET135     -0.1393
    146  CE        18.8370   18.9820   22.3990 C.3   135  MET135      0.0692
    147  N         14.4980   21.9750   18.1200 N.am  136  VAL136     -0.1966
    148  CA        14.4230   22.2450   16.6640 C.3   136  VAL136      0.1727
    149  C         14.0180   23.7200   16.4680 C.2   136  VAL136      0.2616
    150  O         13.0970   24.2090   17.1640 O.2   136  VAL136     -0.2715
    151  CB        13.3800   21.3300   15.9870 C.3   136  VAL136      0.0290
    152  CG1       13.3030   21.6080   14.4690 C.3   136  VAL136      0.0023
    153  CG2       13.7250   19.8280   16.2370 C.3   136  VAL136      0.0023
    154  N         14.6970   24.3970   15.5320 N.am  137  PHE137     -0.1974
    155  CA        14.5220   25.8400   15.2850 C.3   137  PHE137      0.1639
    156  C         13.2780   26.1670   14.4470 C.2   137  PHE137      0.2290
    157  O         13.3570   26.7930   13.3770 O.2   137  PHE137     -0.2864
    158  CB        15.8070   26.4230   14.6570 C.3   137  PHE137      0.0560
    159  CG        16.9230   26.5920   15.6580 C.ar  137  PHE137     -0.0200
    160  CD1       17.9080   25.6120   15.7950 C.ar  137  PHE137     -0.0042
    161  CD2       16.9620   27.7190   16.4840 C.ar  137  PHE137     -0.0042
    162  CE1       18.9450   25.7580   16.7630 C.ar  137  PHE137     -0.0003
    163  CE2       17.9840   27.8910   17.4300 C.ar  137  PHE137     -0.0003
    164  CZ        18.9780   26.8960   17.5800 C.ar  137  PHE137     -0.0000
    165  N         11.9990   29.2930   12.5010 N.3   140  PHE140     -0.1227
    166  CA        12.4620   29.6150   11.1510 C.3   140  PHE140      0.1736
    167  C         11.8770   28.7400   10.0330 C.2   140  PHE140      0.2595
    168  O         12.2760   28.8910    8.8680 O.2   140  PHE140     -0.2718
    169  CB        13.9980   29.5610   11.0970 C.3   140  PHE140      0.0547
    170  CG        14.6580   30.4380   12.1230 C.ar  140  PHE140     -0.0202
    171  CD1       15.6770   29.9280   12.9270 C.ar  140  PHE140     -0.0042
    172  CD2       14.2500   31.7940   12.2920 C.ar  140  PHE140     -0.0042
    173  CE1       16.2820   30.7250   13.8960 C.ar  140  PHE140     -0.0003
    174  CE2       14.8590   32.5870   13.2480 C.ar  140  PHE140     -0.0003
    175  CZ        15.8690   32.0480   14.0590 C.ar  140  PHE140     -0.0000
    176  N         10.9540   27.8350   10.3870 N.am  141  TYR141     -0.1976
    177  CA        10.4480   26.8030    9.4550 C.3   141  TYR141      0.1639
    178  C          8.9480   26.9200    9.1600 C.2   141  TYR141      0.2290
    179  O          8.1220   26.2760    9.8020 O.2   141  TYR141     -0.2864
    180  CB        10.7460   25.3940   10.0000 C.3   141  TYR141      0.0560
    181  CG        12.2080   25.1520   10.3450 C.ar  141  TYR141     -0.0198
    182  CD1       13.2490   25.8030    9.6580 C.ar  141  TYR141     -0.0009
    183  CD2       12.5450   24.2400   11.3430 C.ar  141  TYR141     -0.0009
    184  CE1       14.6030   25.5610    9.9840 C.ar  141  TYR141      0.0417
    185  CE2       13.9080   23.9880   11.6720 C.ar  141  TYR141      0.0417
    186  CZ        14.9070   24.6470   10.9810 C.ar  141  TYR141      0.1957
    187  OH        16.2260   24.4070   11.2840 O.3   141  TYR141     -0.2866
@<TRIPOS>BOND
     1    10    11    1
     2     4     3    2
     3    12    13    2
     4    12    11    1
     5    11    14    1
     6     3     2    1
     7     1     2    1
     8     2     5    1
     9    21    22    1
    10    24    23    2
    11    14    15    1
    12    15    16    1
    13    23    22    1
    14    37    38    2
    15    37    36    1
    16    22    25    1
    17    20    18    1
    18     5     6    1
    19    18    19    1
    20    18    17    2
    21    16    17    1
    22     9     7   am
    23    36    35    1
    24    36    39    1
    25     7     6    1
    26     7     8    2
    27    25    27    1
    28    25    26    1
    29    40    39    1
    30    40    41    1
    31    44    45    1
    32    47    46    2
    33   168   167    2
    34    41    42    1
    35   178   177    1
    36   178   179    2
    37    42    43    1
    38   177   180    1
    39   177   176    1
    40    45    46    1
    41    45    48    1
    42   182   184   ar
    43   182   181   ar
    44    46    53   am
    45   184   186   ar
    46   180   181    1
    47    49    48    1
    48    49    50    1
    49   167   176   am
    50   167   166    1
    51    30    31    2
    52    30    29    1
    53    93    91    1
    54    51    50   ar
    55    89    90    2
    56    89    88    1
    57   181   183   ar
    58    50    52   ar
    59    57    54    1
    60    53    54    1
    61    29    32    1
    62    29    28    1
    63   186   187    1
    64   186   185   ar
    65   169   166    1
    66   169   170    1
    67    88    91    1
    68    88    87    1
    69   166   165    1
    70    54    55    1
    71   183   185   ar
    72    91    92    1
    73    32    33    1
    74    32    34    1
    75    78    77    2
    76   170   172   ar
    77   170   171   ar
    78    92    94    1
    79   172   174   ar
    80    87    77   am
    81    55    58   am
    82    55    56    2
    83    77    76    1
    84   171   173   ar
    85    58    59    1
    86    79    76    1
    87    79    80    1
    88   174   175   ar
    89   157   156    2
    90    61    60    2
    91    76    75    1
    92   173   175   ar
    93    80    82   ar
    94    80    81   ar
    95   156   155    1
    96   152   151    1
    97    59    60    1
    98    59    62    1
    99    63    62    1
   100    82    84   ar
   101    81    83   ar
   102   158   155    1
   103   158   159    1
   104    75    66   am
   105   155   154    1
   106    84    85   ar
   107   154   149   am
   108    83    85   ar
   109   159   160   ar
   110   159   161   ar
   111   101   100    1
   112   160   162   ar
   113   137   138   ar
   114   137   135   ar
   115    85    86    1
   116   151   153    1
   117   151   148    1
   118    66    67    2
   119    66    65    1
   120   138   136   ar
   121   116   114   ar
   122   149   148    1
   123   149   150    2
   124   161   163   ar
   125   102   100    1
   126   100    99    1
   127   148   147    1
   128   162   164   ar
   129    65    68    1
   130    65    64    1
   131    71    73   ar
   132    71    69   ar
   133   135   134   ar
   134   122   121    1
   135    73    74   ar
   136    68    69    1
   137   163   164   ar
   138   136   134   ar
   139   114   113    1
   140   114   115   ar
   141    69    70   ar
   142    99    96    1
   143   147   141   am
   144   134   133    1
   145   142   141    2
   146   113   112    1
   147   121   118    1
   148   111   110    2
   149    74    72   ar
   150    95    96    1
   151   141   140    1
   152    70    72   ar
   153    96    97    1
   154   128   127    1
   155   118   117    1
   156   118   119    1
   157   110   117   am
   158   110   109    1
   159   133   130    1
   160   112   109    1
   161   120   119    2
   162   127   124    1
   163   130   129    1
   164   130   131    1
   165   109   108    1
   166   140   139    1
   167   140   143    1
   168    97    98    2
   169   129   125   am
   170   143   144    1
   171   125   126    2
   172   125   124    1
   173   124   123    1
   174   132   131    2
   175   108   105   am
   176   106   105    2
   177   144   145    1
   178   146   145    1
   179   105   104    1
   180   104   103    1
   181   104   107    1
