@<TRIPOS>MOLECULE
tmp/2je4A00.pdb
 123 116 0 0 0
SMALL
GASTEIGER

@<TRIPOS>ATOM
      1  N         -3.7080   -5.4150    3.3150 N.3     8  ARG8       -0.1245
      2  CA        -3.0170   -4.6530    4.3480 C.3     8  ARG8        0.1563
      3  C         -1.9110   -3.7780    3.7460 C.2     8  ARG8        0.2260
      4  O         -1.1450   -4.2620    2.9210 O.2     8  ARG8       -0.2867
      5  CB        -2.4090   -5.6030    5.3750 C.3     8  ARG8        0.0307
      6  CG        -3.4250   -6.3670    6.2040 C.3     8  ARG8        0.0489
      7  CD        -2.7890   -7.2620    7.2260 C.3     8  ARG8        0.2205
      8  NE        -3.7740   -8.0080    7.9930 N.pl3   8  ARG8       -0.0865
      9  CZ        -3.5820   -9.1480    8.6200 C.cat   8  ARG8        0.5346
     10  NH1       -2.3370   -9.6500    8.5380 N.pl3   8  ARG8        0.1354
     11  NH2       -4.5690   -9.7280    9.2530 N.pl3   8  ARG8        0.1354
     12  N          3.1600   -2.1940    8.8180 N.3    23  LEU23      -0.1245
     13  CA         1.8400   -1.7800    8.3600 C.3    23  LEU23       0.1561
     14  C          1.6760   -0.2960    8.5710 C.2    23  LEU23       0.2260
     15  O          1.8690    0.2110    9.6940 O.2    23  LEU23      -0.2867
     16  CB         0.8630   -2.5620    9.2710 C.3    23  LEU23       0.0270
     17  CG        -0.6220   -2.3910    9.0940 C.3    23  LEU23       0.0019
     18  CD1       -1.1110   -2.9660    7.7950 C.3    23  LEU23       0.0001
     19  CD2       -1.3610   -3.1100   10.2640 C.3    23  LEU23       0.0001
     20  N         -0.4010    2.5640    9.5380 N.3    25  ASP25      -0.1239
     21  CA        -1.5470    2.4130   10.4050 C.3    25  ASP25       0.1674
     22  C         -2.0670    3.7290   10.9450 C.2    25  ASP25       0.2266
     23  O         -1.6010    4.2580   11.9540 O.2    25  ASP25      -0.2867
     24  CB        -1.1520    1.4750   11.5430 C.3    25  ASP25       0.1410
     25  CG        -2.2800    1.1300   12.4380 C.2    25  ASP25       0.3668
     26  OD1       -3.4130    1.5200   12.2180 O.co2  25  ASP25      -0.2456
     27  OD2       -2.0820    0.5020   13.4920 O.co2  25  ASP25      -0.2456
     28  N         -4.7620    4.2370   12.4690 N.3    27  GLY27      -0.1210
     29  CA        -5.3850    4.0040   13.7440 C.3    27  GLY27       0.1956
     30  C         -4.4480    3.8090   14.8990 C.2    27  GLY27       0.2612
     31  O         -4.9200    3.4930   16.0300 O.2    27  GLY27      -0.2717
     32  N         -3.1680    4.0270   14.6950 N.am   28  ALA28      -0.1965
     33  CA        -2.1820    3.9110   15.7410 C.3    28  ALA28       0.1728
     34  C         -1.5940    5.2660   16.0990 C.2    28  ALA28       0.2616
     35  O         -1.0790    5.9580   15.2310 O.2    28  ALA28      -0.2715
     36  CB        -1.0810    2.9530   15.3020 C.3    28  ALA28       0.0334
     37  N         -1.6070    5.5850   17.3820 N.am   29  ASP29      -0.1957
     38  CA        -0.9320    6.8060   17.8330 C.3    29  ASP29       0.1840
     39  C          0.5770    6.6990   17.6550 C.2    29  ASP29       0.2622
     40  O          1.2430    7.6700   17.3390 O.2    29  ASP29      -0.2715
     41  CB        -1.2490    7.0580   19.2980 C.3    29  ASP29       0.1450
     42  CG        -2.6620    7.3830   19.6590 C.2    29  ASP29       0.3671
     43  OD1       -3.4920    7.6900   18.7790 O.co2  29  ASP29      -0.2456
     44  OD2       -2.9380    7.3040   20.8910 O.co2  29  ASP29      -0.2456
     45  N          1.0900    5.5240   17.8760 N.am   30  ASP30      -0.1971
     46  CA         2.4890    5.1860   18.0430 C.3    30  ASP30       0.1709
     47  C          2.9210    4.1060   17.0850 C.2    30  ASP30       0.2293
     48  O          2.1360    3.4420   16.4250 O.2    30  ASP30      -0.2864
     49  CB         2.7640    4.7660   19.4790 C.3    30  ASP30       0.1436
     50  CG         2.9370    6.0230   20.3130 C.2    30  ASP30       0.3671
     51  OD1        3.9030    6.7850   19.9930 O.co2  30  ASP30      -0.2456
     52  OD2        2.2020    6.2650   21.2140 O.co2  30  ASP30      -0.2456
     53  N          5.0190    0.6480   16.6410 N.3    32  VAL32      -0.1245
     54  CA         5.2500   -0.4970   17.4980 C.3    32  VAL32       0.1561
     55  C          5.8290   -1.6040   16.6360 C.2    32  VAL32       0.2260
     56  O          5.2270   -2.0230   15.6430 O.2    32  VAL32      -0.2867
     57  CB         3.9320   -1.0050   18.1640 C.3    32  VAL32       0.0252
     58  CG1        4.3180   -2.0420   19.2380 C.3    32  VAL32       0.0019
     59  CG2        3.1120    0.1280   18.7090 C.3    32  VAL32       0.0019
     60  N          1.0580    0.4820   26.3800 N.3    45  ILE45      -0.1231
     61  CA         0.1560    0.9650   25.3480 C.3    45  ILE45       0.1692
     62  C         -1.0070   -0.0050   25.1870 C.2    45  ILE45       0.2593
     63  O         -0.9320   -1.1710   25.5660 O.2    45  ILE45      -0.2718
     64  CB         0.9000    1.0990   24.0130 C.3    45  ILE45       0.0266
     65  CG1        1.3660   -0.2540   23.4760 C.3    45  ILE45       0.0019
     66  CG2        2.0240    2.1160   24.1850 C.3    45  ILE45       0.0020
     67  CD1        1.9320   -0.3180   22.0850 C.3    45  ILE45       0.0001
     68  N         -2.1020    0.5100   24.6140 N.am   46  GLY46      -0.1942
     69  CA        -3.3100   -0.2450   24.4720 C.3    46  GLY46       0.2014
     70  C         -3.7590   -0.3800   23.0730 C.2    46  GLY46       0.2639
     71  O         -3.4010    0.3590   22.1930 O.2    46  GLY46      -0.2714
     72  N         -4.5770   -1.3980   22.9050 N.am   47  GLY47      -0.1939
     73  CA        -5.2720   -1.6040   21.6560 C.3    47  GLY47       0.2014
     74  C         -6.4840   -2.4530   21.8540 C.2    47  GLY47       0.2638
     75  O         -6.9950   -2.5140   22.9460 O.2    47  GLY47      -0.2714
     76  N         -7.0290   -3.1120   20.8370 N.am   48  ILE48      -0.1977
     77  CA        -8.1390   -4.0920   21.0510 C.3    48  ILE48       0.1596
     78  C         -7.5340   -5.1910   21.8760 C.2    48  ILE48       0.2287
     79  O         -6.3600   -5.4920   21.6670 O.2    48  ILE48      -0.2864
     80  CB        -8.6270   -4.3480   19.6060 C.3    48  ILE48       0.0276
     81  CG1      -10.1570   -4.4830   19.4000 C.3    48  ILE48       0.0022
     82  CG2       -7.9100   -5.5340   18.9750 C.3    48  ILE48       0.0022
     83  CD1      -10.9260   -3.1800   19.4680 C.3    48  ILE48       0.0001
     84  N         -3.9540   -3.9040   27.1280 N.3    51  PHE51      -0.1241
     85  CA        -2.6670   -3.2190   27.2250 C.3    51  PHE51       0.1605
     86  C         -1.5050   -4.1810   27.2140 C.2    51  PHE51       0.2264
     87  O         -1.6220   -5.2980   27.7190 O.2    51  PHE51      -0.2867
     88  CB        -2.5770   -2.3510   28.5050 C.3    51  PHE51       0.0534
     89  CG        -3.4000   -1.0800   28.3170 C.ar   51  PHE51      -0.0203
     90  CD1       -4.7730   -1.0210   28.3690 C.ar   51  PHE51      -0.0042
     91  CD2       -2.6690    0.0720   28.0530 C.ar   51  PHE51      -0.0042
     92  CE1       -5.4330    0.2000   28.1590 C.ar   51  PHE51      -0.0003
     93  CE2       -3.3030    1.2870   27.8470 C.ar   51  PHE51      -0.0003
     94  CZ        -4.6910    1.3380   27.8730 C.ar   51  PHE51      -0.0000
     95  N          3.7590   -6.9090   19.7330 N.3    77  THR77      -0.1204
     96  CA         2.6870   -6.5960   18.7830 C.3    77  THR77       0.1979
     97  C          2.4370   -7.7140   17.7620 C.2    77  THR77       0.2460
     98  O          3.3590   -8.3950   17.3170 O.2    77  THR77      -0.2732
     99  CB         3.0450   -5.2760   18.0970 C.3    77  THR77       0.1783
    100  OG1        1.9740   -5.0510   17.1460 O.3    77  THR77      -0.2211
    101  CG2        4.3950   -5.2650   17.3490 C.3    77  THR77       0.0376
    102  N          1.1900   -7.9610   17.3080 N.am   78  PRO78      -0.2717
    103  CA         0.9420   -9.0280   16.3100 C.3    78  PRO78       0.1535
    104  C          1.5330   -8.6780   14.9630 C.2    78  PRO78       0.2598
    105  O          1.8630   -9.5720   14.2160 O.2    78  PRO78      -0.2715
    106  CB        -0.5620   -9.1780   16.1450 C.3    78  PRO78       0.0310
    107  CG        -1.1040   -8.3880   17.2710 C.3    78  PRO78       0.0237
    108  CD        -0.0760   -7.4210   17.7470 C.3    78  PRO78       0.0939
    109  N          1.6680   -7.4270   14.5930 N.am   79  VAL79      -0.1978
    110  CA         2.2730   -6.9380   13.3590 C.3    79  VAL79       0.1596
    111  C          3.0100   -5.6360   13.6280 C.2    79  VAL79       0.2287
    112  O          2.5910   -4.8340   14.4310 O.2    79  VAL79      -0.2864
    113  CB         1.2620   -6.7780   12.2270 C.3    79  VAL79       0.0276
    114  CG1        0.1850   -5.8580   12.6710 C.3    79  VAL79       0.0022
    115  CG2        1.7340   -6.2070   10.9000 C.3    79  VAL79       0.0022
    116  N          3.8520   -1.9890   13.1990 N.3    81  ILE81      -0.1245
    117  CA         2.9660   -0.9170   12.7020 C.3    81  ILE81       0.1561
    118  C          3.7570    0.3870   12.7720 C.2    81  ILE81       0.2260
    119  O          4.4750    0.6770   13.7380 O.2    81  ILE81      -0.2867
    120  CB         1.6450   -0.8200   13.4590 C.3    81  ILE81       0.0252
    121  CG1        1.9230   -0.5650   14.9300 C.3    81  ILE81       0.0019
    122  CG2        0.7640   -2.0510   13.2330 C.3    81  ILE81       0.0019
    123  CD1        0.7080   -0.4230   15.8010 C.3    81  ILE81       0.0001
@<TRIPOS>BOND
     1     4     3    2
     2     1     2    1
     3     3     2    1
     4     2     5    1
     5     5     6    1
     6     6     7    1
     7     7     8    1
     8    18    17    1
     9     8     9    2
    10    13    14    1
    11    13    12    1
    12    13    16    1
    13    10     9    1
    14    14    15    2
    15     9    11    1
    16    17    16    1
    17    17    19    1
    18    20    21    1
    19    21    22    1
    20    21    24    1
    21   115   113    1
    22    22    23    2
    23    24    25    1
    24    26    25   ar
    25   113   114    1
    26   113   110    1
    27    25    27   ar
    28    28    29    1
    29   117   118    1
    30   117   116    1
    31   117   120    1
    32   118   119    2
    33   122   120    1
    34   110   111    1
    35   110   109    1
    36   120   121    1
    37   111   112    2
    38    29    30    1
    39   105   104    2
    40   109   104   am
    41    32    30   am
    42    32    33    1
    43    30    31    2
    44   121   123    1
    45   104   103    1
    46    35    34    2
    47    36    33    1
    48    56    55    2
    49    33    34    1
    50    34    37   am
    51   106   103    1
    52   106   107    1
    53   103   102    1
    54    48    47    2
    55    55    54    1
    56    53    54    1
    57    47    46    1
    58   100    99    1
    59   107   108    1
    60   102   108    1
    61   102    97   am
    62    98    97    2
    63    40    39    2
    64   101    99    1
    65    37    38    1
    66    54    57    1
    67    39    38    1
    68    39    45   am
    69    97    96    1
    70    38    41    1
    71    45    46    1
    72    46    49    1
    73    99    96    1
    74    57    59    1
    75    57    58    1
    76    43    42   ar
    77    96    95    1
    78    82    80    1
    79    41    42    1
    80    81    83    1
    81    81    80    1
    82    49    50    1
    83    80    77    1
    84    42    44   ar
    85    51    50   ar
    86    50    52   ar
    87    76    77    1
    88    76    74   am
    89    77    78    1
    90    73    74    1
    91    73    72    1
    92    79    78    2
    93    74    75    2
    94    67    65    1
    95    71    70    2
    96    72    70   am
    97    70    69    1
    98    65    64    1
    99    64    66    1
   100    64    61    1
   101    69    68    1
   102    68    62   am
   103    62    61    1
   104    62    63    2
   105    61    60    1
   106    84    85    1
   107    86    85    1
   108    86    87    2
   109    85    88    1
   110    93    94   ar
   111    93    91   ar
   112    94    92   ar
   113    91    89   ar
   114    92    90   ar
   115    89    90   ar
   116    89    88    1
