@<TRIPOS>MOLECULE
tmp/2je8B01.pdb
 105 101 0 0 0
SMALL
GASTEIGER

@<TRIPOS>ATOM
      1  N        -18.6140   27.1850   30.9290 N.3   201  TYR201     -0.1241
      2  CA       -18.1950   27.5210   32.2940 C.3   201  TYR201      0.1605
      3  C        -17.2690   26.4170   32.7820 C.2   201  TYR201      0.2264
      4  O        -17.6160   25.2270   32.7130 O.2   201  TYR201     -0.2867
      5  CB       -19.4340   27.6840   33.1990 C.3   201  TYR201      0.0534
      6  CG       -19.0400   27.8970   34.6540 C.ar  201  TYR201     -0.0201
      7  CD1      -18.1430   28.9210   34.9830 C.ar  201  TYR201     -0.0009
      8  CD2      -19.5250   27.0860   35.6710 C.ar  201  TYR201     -0.0009
      9  CE1      -17.7300   29.1420   36.2970 C.ar  201  TYR201      0.0417
     10  CE2      -19.1090   27.2980   37.0130 C.ar  201  TYR201      0.0417
     11  CZ       -18.2110   28.3230   37.3030 C.ar  201  TYR201      0.1957
     12  OH       -17.7760   28.5420   38.6040 O.3   201  TYR201     -0.2866
     13  N        -15.9790   24.9060   35.9730 N.3   203  ARG203     -0.1245
     14  CA       -16.2320   24.8780   37.4010 C.3   203  ARG203      0.1563
     15  C        -15.0860   24.1560   38.1120 C.2   203  ARG203      0.2260
     16  O        -14.7270   23.0110   37.7640 O.2   203  ARG203     -0.2867
     17  CB       -17.5620   24.1930   37.6990 C.3   203  ARG203      0.0307
     18  CG       -17.9120   24.3600   39.1730 C.3   203  ARG203      0.0489
     19  CD       -19.2290   23.8080   39.6310 C.3   203  ARG203      0.2205
     20  NE       -19.3830   24.3070   41.0160 N.pl3 203  ARG203     -0.0865
     21  CZ       -20.4230   24.0560   41.8070 C.cat 203  ARG203      0.5346
     22  NH1      -20.4630   24.5680   43.0530 N.pl3 203  ARG203      0.1354
     23  NH2      -21.4420   23.3160   41.3480 N.pl3 203  ARG203      0.1354
     24  N        -18.8000   22.8120   31.7960 N.3   217  GLU217     -0.1245
     25  CA       -20.2590   22.8990   31.6050 C.3   217  GLU217      0.1567
     26  C        -20.5460   23.6990   30.3850 C.2   217  GLU217      0.2260
     27  O        -20.1300   24.8810   30.2670 O.2   217  GLU217     -0.2867
     28  CB       -20.9590   23.5190   32.8420 C.3   217  GLU217      0.0388
     29  CG       -20.6200   22.7280   34.0790 C.3   217  GLU217      0.1160
     30  CD       -21.2430   23.2550   35.3720 C.2   217  GLU217      0.3649
     31  OE1      -22.0070   24.2390   35.3490 O.co2 217  GLU217     -0.2457
     32  OE2      -20.9060   22.6540   36.4020 O.co2 217  GLU217     -0.2457
     33  N        -22.6770   35.2730   34.0520 N.3   420  ARG420     -0.1245
     34  CA       -22.1610   34.3120   33.0940 C.3   420  ARG420      0.1563
     35  C        -20.9610   34.8510   32.3210 C.2   420  ARG420      0.2260
     36  O        -20.0280   34.1350   32.0160 O.2   420  ARG420     -0.2867
     37  CB       -23.2520   33.8820   32.1160 C.3   420  ARG420      0.0307
     38  CG       -24.3770   33.0740   32.7550 C.3   420  ARG420      0.0489
     39  CD       -24.9960   32.2370   31.6010 C.3   420  ARG420      0.2205
     40  NE       -25.7060   31.0320   32.0540 N.pl3 420  ARG420     -0.0865
     41  CZ       -27.0130   30.8270   31.8730 C.cat 420  ARG420      0.5346
     42  NH1      -27.7450   31.7580   31.2520 N.pl3 420  ARG420      0.1354
     43  NH2      -27.5920   29.6920   32.2950 N.pl3 420  ARG420      0.1354
     44  N        -17.8340   35.0150   35.1540 N.3   423  ARG423     -0.1245
     45  CA       -17.5650   33.9620   36.1640 C.3   423  ARG423      0.1563
     46  C        -16.3420   33.0740   35.8970 C.2   423  ARG423      0.2260
     47  O        -15.8860   32.3720   36.8150 O.2   423  ARG423     -0.2867
     48  CB       -18.8210   33.1170   36.5000 C.3   423  ARG423      0.0307
     49  CG       -19.3170   32.3430   35.3030 C.3   423  ARG423      0.0489
     50  CD       -20.5540   31.5550   35.6890 C.3   423  ARG423      0.2205
     51  NE       -21.0830   30.8660   34.4980 N.pl3 423  ARG423     -0.0865
     52  CZ       -22.1450   30.0660   34.5300 C.cat 423  ARG423      0.5346
     53  NH1      -22.7760   29.8770   35.6780 N.pl3 423  ARG423      0.1354
     54  NH2      -22.5440   29.4060   33.4210 N.pl3 423  ARG423      0.1354
     55  N        -26.1670   32.7790   43.8550 N.3   475  LYS475     -0.1231
     56  CA       -26.2010   31.3840   44.3240 C.3   475  LYS475      0.1693
     57  C        -26.4330   30.4070   43.1840 C.2   475  LYS475      0.2592
     58  O        -25.8340   29.3320   43.1820 O.2   475  LYS475     -0.2718
     59  CB       -27.2850   31.2070   45.4160 C.3   475  LYS475      0.0285
     60  CG       -27.1190   29.9060   46.1950 C.3   475  LYS475      0.0035
     61  CD       -25.9680   30.0250   47.1860 C.3   475  LYS475      0.0206
     62  CE       -25.4660   28.6520   47.6680 C.3   475  LYS475      0.1093
     63  NZ       -24.4650   28.7960   48.7830 N.3   475  LYS475     -0.1314
     64  N        -27.2360   30.7990   42.1920 N.am  476  GLU476     -0.1966
     65  CA       -27.5490   29.9220   41.0770 C.3   476  GLU476      0.1733
     66  C        -26.4140   29.8880   40.0450 C.2   476  GLU476      0.2616
     67  O        -26.0910   28.8410   39.5000 O.2   476  GLU476     -0.2715
     68  CB       -28.8840   30.3210   40.4400 C.3   476  GLU476      0.0429
     69  CG       -29.2600   29.4890   39.2020 C.3   476  GLU476      0.1163
     70  CD       -29.3630   28.0010   39.5150 C.2   476  GLU476      0.3649
     71  OE1      -29.5430   27.6340   40.7020 O.co2 476  GLU476     -0.2457
     72  OE2      -29.2570   27.2020   38.5560 O.co2 476  GLU476     -0.2457
     73  N        -25.8530   31.0600   39.7560 N.am  477  PHE477     -0.1960
     74  CA       -24.9270   31.1750   38.5950 C.3   477  PHE477      0.1771
     75  C        -23.4640   31.3640   38.9720 C.2   477  PHE477      0.2620
     76  O        -22.5970   31.3180   38.0860 O.2   477  PHE477     -0.2715
     77  CB       -25.4060   32.2800   37.6650 C.3   477  PHE477      0.0574
     78  CG       -26.7150   31.9600   37.0240 C.ar  477  PHE477     -0.0200
     79  CD1      -26.7470   31.0900   35.9480 C.ar  477  PHE477     -0.0042
     80  CD2      -27.8990   32.5160   37.4870 C.ar  477  PHE477     -0.0042
     81  CE1      -27.9470   30.7560   35.3600 C.ar  477  PHE477     -0.0003
     82  CE2      -29.1240   32.1940   36.8920 C.ar  477  PHE477     -0.0003
     83  CZ       -29.1220   31.3060   35.8270 C.ar  477  PHE477     -0.0000
     84  N        -23.1640   31.5700   40.2500 N.am  478  ASP478     -0.1957
     85  CA       -21.7480   31.6570   40.6380 C.3   478  ASP478      0.1840
     86  C        -21.6510   31.1690   42.0700 C.2   478  ASP478      0.2623
     87  O        -21.2600   31.8880   42.9800 O.2   478  ASP478     -0.2715
     88  CB       -21.2750   33.1120   40.4610 C.3   478  ASP478      0.1450
     89  CG       -19.7520   33.2280   40.3100 C.2   478  ASP478      0.3671
     90  OD1      -19.0440   32.1920   40.3710 O.co2 478  ASP478     -0.2456
     91  OD2      -19.3230   34.4020   40.1460 O.co2 478  ASP478     -0.2456
     92  N        -22.0150   29.8920   42.2370 N.am  479  SER479     -0.1936
     93  CA       -22.2650   29.4140   43.5990 C.3   479  SER479      0.2055
     94  C        -21.0080   29.2980   44.4470 C.2   479  SER479      0.2643
     95  O        -21.1130   29.2160   45.6780 O.2   479  SER479     -0.2714
     96  CB       -23.0080   28.0770   43.6250 C.3   479  SER479      0.2130
     97  OG       -22.0940   27.0600   43.2970 O.3   479  SER479     -0.2179
     98  N        -19.8230   29.3540   43.8520 N.am  480  ASP480     -0.1971
     99  CA       -18.6000   29.2660   44.6460 C.3   480  ASP480      0.1709
    100  C        -18.0420   30.6480   44.9740 C.2   480  ASP480      0.2293
    101  O        -16.9250   30.7330   45.5000 O.2   480  ASP480     -0.2864
    102  CB       -17.5100   28.4470   43.9360 C.3   480  ASP480      0.1436
    103  CG       -17.9840   27.0290   43.5550 C.2   480  ASP480      0.3671
    104  OD1      -18.6070   26.4160   44.4220 O.co2 480  ASP480     -0.2456
    105  OD2      -17.7630   26.5740   42.3970 O.co2 480  ASP480     -0.2456
@<TRIPOS>BOND
     1    27    26    2
     2    26    25    1
     3     1     2    1
     4    42    41    1
     5    39    40    1
     6    39    38    1
     7    25    24    1
     8    25    28    1
     9    41    40    2
    10    41    43    1
    11    36    35    2
    12    37    38    1
    13    37    34    1
    14     2     3    1
    15     2     5    1
    16    35    34    1
    17     4     3    2
    18    28    29    1
    19    34    33    1
    20     5     6    1
    21    54    52    1
    22    29    30    1
    23    51    52    2
    24    51    50    1
    25    52    53    1
    26     6     7   ar
    27     6     8   ar
    28     7     9   ar
    29    44    45    1
    30    49    50    1
    31    49    48    1
    32    31    30   ar
    33    81    83   ar
    34    81    79   ar
    35    30    32   ar
    36     8    10   ar
    37    83    82   ar
    38    46    45    1
    39    46    47    2
    40    79    78   ar
    41    13    14    1
    42    45    48    1
    43     9    11   ar
    44    82    80   ar
    45    10    11   ar
    46    78    80   ar
    47    78    77    1
    48    11    12    1
    49    14    17    1
    50    14    15    1
    51    77    74    1
    52    17    18    1
    53    16    15    2
    54    76    75    2
    55    72    70   ar
    56    74    75    1
    57    74    73    1
    58    75    84   am
    59    18    19    1
    60    69    70    1
    61    69    68    1
    62    67    66    2
    63    70    71   ar
    64    19    20    1
    65    73    66   am
    66    66    65    1
    67    91    89   ar
    68    84    85    1
    69    89    90   ar
    70    89    88    1
    71    68    65    1
    72    88    85    1
    73    85    86    1
    74    20    21    2
    75    65    64    1
    76    23    21    1
    77    21    22    1
    78    86    92   am
    79    86    87    2
    80    64    57   am
    81    92    93    1
    82   105   103   ar
    83    58    57    2
    84    57    56    1
    85    97    96    1
    86   103   102    1
    87   103   104   ar
    88    93    96    1
    89    93    94    1
    90    98    94   am
    91    98    99    1
    92    55    56    1
    93   102    99    1
    94    56    59    1
    95    94    95    2
    96    99   100    1
    97   100   101    2
    98    59    60    1
    99    60    61    1
   100    61    62    1
   101    62    63    1
