@<TRIPOS>MOLECULE
tmp/2je8A00.pdb
 181 182 0 0 0
SMALL
GASTEIGER

@<TRIPOS>ATOM
      1  N         39.2020   50.7250   -1.5190 N.3   150  ASP150     -0.1225
      2  CA        38.5880   51.9290   -2.1430 C.3   150  ASP150      0.1805
      3  C         37.6040   52.6370   -1.1780 C.2   150  ASP150      0.2597
      4  O         37.3450   53.8750   -1.2880 O.2   150  ASP150     -0.2718
      5  CB        37.7260   51.5450   -3.3690 C.3   150  ASP150      0.1424
      6  CG        38.4980   50.8750   -4.5040 C.2   150  ASP150      0.3668
      7  OD1       39.7370   50.9870   -4.5680 O.co2 150  ASP150     -0.2456
      8  OD2       37.8110   50.2480   -5.3610 O.co2 150  ASP150     -0.2456
      9  N         36.9800   51.8400   -0.3010 N.am  151  ASN151     -0.1974
     10  CA        36.0240   52.3820    0.6590 C.3   151  ASN151      0.1688
     11  C         36.6150   53.1500    1.8290 C.2   151  ASN151      0.2292
     12  O         35.9050   53.7720    2.5990 O.2   151  ASN151     -0.2864
     13  CB        35.0520   51.3050    1.1560 C.3   151  ASN151      0.1181
     14  CG        34.0280   50.9470    0.1010 C.2   151  ASN151      0.2629
     15  OD1       33.1170   51.7380   -0.1970 O.2   151  ASN151     -0.2716
     16  ND2       34.2120   49.7840   -0.5340 N.am  151  ASN151     -0.0877
     17  N         32.4650   54.8750    3.3590 N.3   171  TRP171     -0.1227
     18  CA        32.0130   53.7360    2.5750 C.3   171  TRP171      0.1737
     19  C         31.2540   54.2840    1.3700 C.2   171  TRP171      0.2595
     20  O         31.0050   55.4860    1.2850 O.2   171  TRP171     -0.2718
     21  CB        31.1500   52.7400    3.4110 C.3   171  TRP171      0.0564
     22  CG        31.3490   51.3240    2.9150 C.ar  171  TRP171      0.0003
     23  CD1       30.6030   50.6760    1.9610 C.ar  171  TRP171      0.0946
     24  CD2       32.4040   50.4360    3.2800 C.ar  171  TRP171      0.0152
     25  NE1       31.1170   49.4230    1.7250 N.ar  171  TRP171     -0.2442
     26  CE2       32.2240   49.2410    2.5250 C.ar  171  TRP171      0.0810
     27  CE3       33.4720   50.5210    4.1910 C.ar  171  TRP171      0.0012
     28  CZ2       33.0840   48.1200    2.6520 C.ar  171  TRP171      0.0191
     29  CZ3       34.3390   49.4280    4.3020 C.ar  171  TRP171      0.0001
     30  CH2       34.1400   48.2390    3.5310 C.ar  171  TRP171      0.0015
     31  N         30.7850   53.3700    0.5170 N.am  172  ASP172     -0.1974
     32  CA        30.1220   53.7860   -0.7370 C.3   172  ASP172      0.1709
     33  C         28.6730   54.2520   -0.5000 C.2   172  ASP172      0.2293
     34  O         28.0010   54.6570   -1.4540 O.2   172  ASP172     -0.2864
     35  CB        30.2910   52.7140   -1.8630 C.3   172  ASP172      0.1436
     36  CG        29.5760   51.3930   -1.5660 C.2   172  ASP172      0.3671
     37  OD1       28.7690   51.2930   -0.6000 O.co2 172  ASP172     -0.2456
     38  OD2       29.7840   50.4610   -2.3620 O.co2 172  ASP172     -0.2456
     39  N         25.8860   42.8980    7.5780 N.3   368  TRP368     -0.1241
     40  CA        26.9620   42.9410    6.5670 C.3   368  TRP368      0.1605
     41  C         28.3300   43.3530    7.1590 C.2   368  TRP368      0.2264
     42  O         28.4160   44.1580    8.1240 O.2   368  TRP368     -0.2867
     43  CB        26.4590   43.8620    5.4600 C.3   368  TRP368      0.0550
     44  CG        27.4550   44.4260    4.5080 C.ar  368  TRP368      0.0003
     45  CD1       27.7870   43.9640    3.2540 C.ar  368  TRP368      0.0946
     46  CD2       28.1670   45.6470    4.7050 C.ar  368  TRP368      0.0152
     47  NE1       28.7100   44.8280    2.6750 N.ar  368  TRP368     -0.2442
     48  CE2       28.9260   45.8880    3.5270 C.ar  368  TRP368      0.0810
     49  CE3       28.1530   46.6220    5.7310 C.ar  368  TRP368      0.0012
     50  CZ2       29.7330   47.0130    3.3990 C.ar  368  TRP368      0.0191
     51  CZ3       28.9670   47.7270    5.6260 C.ar  368  TRP368      0.0001
     52  CH2       29.7420   47.9320    4.4510 C.ar  368  TRP368      0.0015
     53  N         35.3390   44.0150    1.3780 N.3   397  CYS397     -0.1235
     54  CA        35.6710   44.6890    0.1100 C.3   397  CYS397      0.1677
     55  C         37.1460   44.7230   -0.2340 C.2   397  CYS397      0.2270
     56  O         37.5040   44.7890   -1.4310 O.2   397  CYS397     -0.2867
     57  CB        35.0120   46.0740    0.0230 C.3   397  CYS397      0.0956
     58  SG        33.2130   45.9570   -0.1610 S.3   397  CYS397     -0.0801
     59  N         32.4910   40.0880    3.2700 N.3   434  ASN434     -0.1225
     60  CA        31.7800   40.6130    2.0910 C.3   434  ASN434      0.1785
     61  C         32.7560   40.8650    0.9240 C.2   434  ASN434      0.2597
     62  O         33.6200   41.7470    1.0350 O.2   434  ASN434     -0.2718
     63  CB        31.1190   41.9370    2.4230 C.3   434  ASN434      0.1169
     64  CG        30.4170   42.5200    1.2260 C.2   434  ASN434      0.2627
     65  OD1       29.3420   42.0240    0.8390 O.2   434  ASN434     -0.2716
     66  ND2       31.0330   43.5460    0.5940 N.am  434  ASN434     -0.0877
     67  N         32.5890   40.0850   -0.1560 N.am  435  GLU435     -0.1979
     68  CA        33.1630   40.3940   -1.4920 C.3   435  GLU435      0.1602
     69  C         34.7020   40.4020   -1.5990 C.2   435  GLU435      0.2287
     70  O         35.2610   40.9160   -2.6020 O.2   435  GLU435     -0.2864
     71  CB        32.5970   41.7320   -2.0510 C.3   435  GLU435      0.0415
     72  CG        31.0900   41.5910   -2.4300 C.3   435  GLU435      0.1163
     73  CD        30.4140   42.9160   -2.7980 C.2   435  GLU435      0.3649
     74  OE1       30.9040   44.0300   -2.4120 O.co2 435  GLU435     -0.2457
     75  OE2       29.3160   42.8420   -3.3890 O.co2 435  GLU435     -0.2457
     76  N         35.8700   37.9940   -4.4080 N.3   438  GLU438     -0.1245
     77  CA        35.5020   38.7140   -5.6460 C.3   438  GLU438      0.1567
     78  C         36.5170   39.8090   -6.0240 C.2   438  GLU438      0.2260
     79  O         36.9910   39.8910   -7.1760 O.2   438  GLU438     -0.2867
     80  CB        34.0960   39.2920   -5.5300 C.3   438  GLU438      0.0388
     81  CG        33.7680   40.2400   -6.7160 C.3   438  GLU438      0.1160
     82  CD        32.2960   40.5400   -6.8260 C.2   438  GLU438      0.3649
     83  OE1       31.4890   39.6070   -7.0180 O.co2 438  GLU438     -0.2457
     84  OE2       31.9570   41.7280   -6.8280 O.co2 438  GLU438     -0.2457
     85  N         39.2540   42.2460   -9.7790 N.3   443  TRP443     -0.1241
     86  CA        39.6790   43.6510   -9.8940 C.3   443  TRP443      0.1605
     87  C         41.1160   43.7820  -10.4390 C.2   443  TRP443      0.2264
     88  O         41.7170   44.8730  -10.3800 O.2   443  TRP443     -0.2867
     89  CB        39.5950   44.3450   -8.5360 C.3   443  TRP443      0.0550
     90  CG        38.2080   44.4460   -7.8840 C.ar  443  TRP443      0.0003
     91  CD1       37.0460   43.7970   -8.2400 C.ar  443  TRP443      0.0946
     92  CD2       37.8910   45.2240   -6.7310 C.ar  443  TRP443      0.0152
     93  NE1       36.0200   44.1420   -7.3790 N.ar  443  TRP443     -0.2442
     94  CE2       36.5120   45.0180   -6.4440 C.ar  443  TRP443      0.0810
     95  CE3       38.6400   46.0830   -5.9030 C.ar  443  TRP443      0.0012
     96  CZ2       35.8700   45.6460   -5.3600 C.ar  443  TRP443      0.0191
     97  CZ3       37.9950   46.7120   -4.8290 C.ar  443  TRP443      0.0001
     98  CH2       36.6210   46.4830   -4.5680 C.ar  443  TRP443      0.0015
     99  N         28.7740   38.8720  -10.9680 N.3   492  TRP492     -0.1241
    100  CA        27.6730   39.4510  -11.7520 C.3   492  TRP492      0.1605
    101  C         28.0560   39.6230  -13.2280 C.2   492  TRP492      0.2264
    102  O         27.1830   39.8230  -14.0820 O.2   492  TRP492     -0.2867
    103  CB        27.1390   40.7400  -11.1590 C.3   492  TRP492      0.0550
    104  CG        28.0250   41.9620  -11.0850 C.ar  492  TRP492      0.0003
    105  CD1       28.8120   42.3640  -10.0200 C.ar  492  TRP492      0.0946
    106  CD2       28.1010   43.0220  -12.0660 C.ar  492  TRP492      0.0152
    107  NE1       29.3970   43.6060  -10.3070 N.ar  492  TRP492     -0.2442
    108  CE2       28.9870   44.0090  -11.5560 C.ar  492  TRP492      0.0810
    109  CE3       27.5610   43.1920  -13.3540 C.ar  492  TRP492      0.0012
    110  CZ2       29.3250   45.1750  -12.2850 C.ar  492  TRP492      0.0191
    111  CZ3       27.8810   44.3800  -14.0860 C.ar  492  TRP492      0.0001
    112  CH2       28.7620   45.3440  -13.5410 C.ar  492  TRP492      0.0015
    113  N         24.9930   42.7510   -9.3610 N.3   506  TRP506     -0.1241
    114  CA        25.0340   44.2140   -9.4950 C.3   506  TRP506      0.1605
    115  C         24.9760   44.6830  -10.9700 C.2   506  TRP506      0.2264
    116  O         25.3990   45.8060  -11.2820 O.2   506  TRP506     -0.2867
    117  CB        26.2590   44.7780   -8.7450 C.3   506  TRP506      0.0550
    118  CG        25.9880   44.8550   -7.2490 C.ar  506  TRP506      0.0003
    119  CD1       26.4700   44.0010   -6.2640 C.ar  506  TRP506      0.0946
    120  CD2       25.1040   45.7640   -6.6090 C.ar  506  TRP506      0.0152
    121  NE1       25.9210   44.3640   -5.0370 N.ar  506  TRP506     -0.2442
    122  CE2       25.0950   45.4410   -5.2220 C.ar  506  TRP506      0.0810
    123  CE3       24.3310   46.8580   -7.0670 C.ar  506  TRP506      0.0012
    124  CZ2       24.3670   46.1920   -4.2800 C.ar  506  TRP506      0.0191
    125  CZ3       23.5500   47.5700   -6.1460 C.ar  506  TRP506      0.0001
    126  CH2       23.6160   47.2590   -4.7510 C.ar  506  TRP506      0.0015
    127  N         25.2820   49.0530  -10.9430 N.3   510  TYR510     -0.1241
    128  CA        26.6730   49.1190  -11.4150 C.3   510  TYR510      0.1605
    129  C         26.8590   48.7490  -12.8840 C.2   510  TYR510      0.2264
    130  O         27.6930   49.3660  -13.5810 O.2   510  TYR510     -0.2867
    131  CB        27.5900   48.2580  -10.5450 C.3   510  TYR510      0.0534
    132  CG        27.7760   48.8850   -9.1660 C.ar  510  TYR510     -0.0201
    133  CD1       28.4240   50.1240   -9.0180 C.ar  510  TYR510     -0.0009
    134  CD2       27.2550   48.2490   -8.0210 C.ar  510  TYR510     -0.0009
    135  CE1       28.6070   50.6820   -7.7390 C.ar  510  TYR510      0.0417
    136  CE2       27.4290   48.7930   -6.7560 C.ar  510  TYR510      0.0417
    137  CZ        28.0770   50.0000   -6.6220 C.ar  510  TYR510      0.1957
    138  OH        28.2680   50.5270   -5.3590 O.3   510  TYR510     -0.2866
    139  N         22.7110   40.0440   -2.5090 N.3   528  GLU528     -0.1245
    140  CA        22.6790   41.5080   -2.7180 C.3   528  GLU528      0.1567
    141  C         22.1810   41.7700   -4.1260 C.2   528  GLU528      0.2260
    142  O         22.6200   41.1150   -5.0800 O.2   528  GLU528     -0.2867
    143  CB        24.0920   42.1630   -2.6730 C.3   528  GLU528      0.0388
    144  CG        24.7180   42.2390   -1.3070 C.3   528  GLU528      0.1160
    145  CD        26.0130   43.0760   -1.2930 C.2   528  GLU528      0.3649
    146  OE1       26.3170   43.7830   -2.2910 O.co2 528  GLU528     -0.2457
    147  OE2       26.7000   43.0260   -0.2530 O.co2 528  GLU528     -0.2457
    148  N         30.6180   54.6840   -6.6650 N.3   563  SER563     -0.1217
    149  CA        31.4900   54.8910   -7.8220 C.3   563  SER563      0.1889
    150  C         30.7110   55.3330   -9.0780 C.2   563  SER563      0.2288
    151  O         31.3390   55.7800  -10.0570 O.2   563  SER563     -0.2866
    152  CB        32.2570   53.6020   -8.0990 C.3   563  SER563      0.2089
    153  OG        31.3600   52.6180   -8.5620 O.3   563  SER563     -0.2183
    154  N         19.9850   45.0230   -1.2290 N.3   618  TRP618     -0.1241
    155  CA        20.9550   45.9980   -0.7320 C.3   618  TRP618      0.1605
    156  C         20.2540   47.3560   -0.9290 C.2   618  TRP618      0.2264
    157  O         20.0470   47.7390   -2.0830 O.2   618  TRP618     -0.2867
    158  CB        22.2610   45.9420   -1.5810 C.3   618  TRP618      0.0550
    159  CG        23.1980   46.9050   -0.9830 C.ar  618  TRP618      0.0003
    160  CD1       23.3190   48.2570   -1.2800 C.ar  618  TRP618      0.0946
    161  CD2       24.0470   46.6580    0.1590 C.ar  618  TRP618      0.0152
    162  NE1       24.2550   48.8420   -0.4220 N.ar  618  TRP618     -0.2442
    163  CE2       24.6670   47.8920    0.4950 C.ar  618  TRP618      0.0810
    164  CE3       24.3280   45.5100    0.9300 C.ar  618  TRP618      0.0012
    165  CZ2       25.5640   48.0250    1.5780 C.ar  618  TRP618      0.0191
    166  CZ3       25.2490   45.6200    1.9930 C.ar  618  TRP618      0.0001
    167  CH2       25.8460   46.8890    2.3160 C.ar  618  TRP618      0.0015
    168  N         21.0960   53.1420   -1.5840 N.3   629  TRP629     -0.1241
    169  CA        20.2280   52.0620   -1.9580 C.3   629  TRP629      0.1605
    170  C         19.1600   51.7080   -0.8900 C.2   629  TRP629      0.2264
    171  O         18.4690   50.7000   -1.0400 O.2   629  TRP629     -0.2867
    172  CB        21.1010   50.8410   -2.1300 C.3   629  TRP629      0.0550
    173  CG        22.1600   50.9980   -3.2130 C.ar  629  TRP629      0.0003
    174  CD1       22.0290   50.6910   -4.5430 C.ar  629  TRP629      0.0946
    175  CD2       23.5250   51.4480   -3.0310 C.ar  629  TRP629      0.0152
    176  NE1       23.2290   50.9040   -5.1950 N.ar  629  TRP629     -0.2442
    177  CE2       24.1510   51.4070   -4.3050 C.ar  629  TRP629      0.0810
    178  CE3       24.2690   51.8940   -1.9120 C.ar  629  TRP629      0.0012
    179  CZ2       25.5050   51.7300   -4.4960 C.ar  629  TRP629      0.0191
    180  CZ3       25.6180   52.2630   -2.1090 C.ar  629  TRP629      0.0001
    181  CH2       26.2070   52.2060   -3.3950 C.ar  629  TRP629      0.0015
@<TRIPOS>BOND
     1   111   112   ar
     2   111   109   ar
     3   102   101    2
     4   130   129    2
     5   112   110   ar
     6   109   106   ar
     7   101   100    1
     8   129   128    1
     9   110   108   ar
    10   106   108   ar
    11   106   104   ar
    12   100   103    1
    13   100    99    1
    14   108   107   ar
    15   128   127    1
    16   128   131    1
    17   116   115    2
    18   103   104    1
    19   104   105   ar
    20   115   114    1
    21   131   132    1
    22    87    88    2
    23    87    86    1
    24   107   105   ar
    25   151   150    2
    26    86    85    1
    27    86    89    1
    28   114   113    1
    29   114   117    1
    30   132   133   ar
    31   132   134   ar
    32   150   149    1
    33   133   135   ar
    34   117   118    1
    35   153   152    1
    36    89    90    1
    37    91    90   ar
    38    91    93   ar
    39   152   149    1
    40   134   136   ar
    41    90    92   ar
    42   149   148    1
    43   135   137   ar
    44    93    94   ar
    45   118   120   ar
    46   118   119   ar
    47    79    78    2
    48   123   120   ar
    49   123   125   ar
    50    83    82   ar
    51    84    82   ar
    52    82    81    1
    53   136   137   ar
    54    92    94   ar
    55    92    95   ar
    56    81    80    1
    57   137   138    1
    58   120   122   ar
    59    94    96   ar
    60   119   121   ar
    61   125   126   ar
    62    78    77    1
    63    95    97   ar
    64    77    80    1
    65    77    76    1
    66     8     6   ar
    67    96    98   ar
    68   122   121   ar
    69   122   124   ar
    70   176   174   ar
    71   176   177   ar
    72   142   141    2
    73    97    98   ar
    74   126   124   ar
    75     7     6   ar
    76   174   173   ar
    77     6     5    1
    78   179   177   ar
    79   179   181   ar
    80   177   175   ar
    81   141   140    1
    82   181   180   ar
    83    75    73   ar
    84     5     2    1
    85   173   175   ar
    86   173   172    1
    87   175   178   ar
    88    73    72    1
    89    73    74   ar
    90   140   143    1
    91   140   139    1
    92   143   144    1
    93    70    69    2
    94    72    71    1
    95    38    36   ar
    96   146   145   ar
    97     2     1    1
    98     2     3    1
    99   172   169    1
   100   180   178   ar
   101   157   156    2
   102    71    68    1
   103   169   168    1
   104   169   170    1
   105    35    36    1
   106    35    32    1
   107    69    68    1
   108   158   159    1
   109   158   155    1
   110    36    37   ar
   111    68    67    1
   112    34    33    2
   113    56    55    2
   114   144   145    1
   115   145   147   ar
   116     4     3    2
   117   160   159   ar
   118   160   162   ar
   119   154   155    1
   120     3     9   am
   121   171   170    2
   122   159   161   ar
   123   156   155    1
   124    32    33    1
   125    32    31    1
   126    16    14   am
   127   162   163   ar
   128     9    10    1
   129    55    54    1
   130    15    14    2
   131    58    57    1
   132    67    61   am
   133    57    54    1
   134    14    13    1
   135    54    53    1
   136   161   163   ar
   137   161   164   ar
   138   163   165   ar
   139    31    19   am
   140    66    64   am
   141    10    13    1
   142    10    11    1
   143    65    64    2
   144    61    62    2
   145    61    60    1
   146   164   166   ar
   147    64    63    1
   148    20    19    2
   149    19    18    1
   150   165   167   ar
   151    25    23   ar
   152    25    26   ar
   153    11    12    2
   154    23    22   ar
   155   166   167   ar
   156    60    63    1
   157    60    59    1
   158    26    28   ar
   159    26    24   ar
   160    18    17    1
   161    18    21    1
   162    28    30   ar
   163    47    45   ar
   164    47    48   ar
   165    22    24   ar
   166    22    21    1
   167    45    44   ar
   168    24    27   ar
   169    50    48   ar
   170    50    52   ar
   171    48    46   ar
   172    30    29   ar
   173    27    29   ar
   174    52    51   ar
   175    44    46   ar
   176    44    43    1
   177    46    49   ar
   178    43    40    1
   179    51    49   ar
   180    40    41    1
   181    40    39    1
   182    41    42    2
