@<TRIPOS>MOLECULE
tmp/2jecC00.pdb
 84 80 0 0 0
SMALL
GASTEIGER

@<TRIPOS>ATOM
      1  N          0.4490  -76.0110  -29.8760 N.3    13  TYR13      -0.1241
      2  CA         0.8120  -77.4410  -29.9160 C.3    13  TYR13       0.1605
      3  C         -0.3540  -78.3300  -30.3050 C.2    13  TYR13       0.2264
      4  O         -1.3310  -78.4410  -29.5700 O.2    13  TYR13      -0.2867
      5  CB         1.4260  -77.9110  -28.5780 C.3    13  TYR13       0.0534
      6  CG         1.9730  -79.3340  -28.6100 C.ar   13  TYR13      -0.0201
      7  CD1        3.2740  -79.6060  -29.0150 C.ar   13  TYR13      -0.0009
      8  CD2        1.1700  -80.4070  -28.2350 C.ar   13  TYR13      -0.0009
      9  CE1        3.7710  -80.9570  -29.0400 C.ar   13  TYR13       0.0417
     10  CE2        1.6420  -81.7240  -28.2590 C.ar   13  TYR13       0.0417
     11  CZ         2.9180  -81.9950  -28.6600 C.ar   13  TYR13       0.1957
     12  OH         3.3100  -83.3310  -28.6500 O.3    13  TYR13      -0.2866
     13  N         -2.6430  -81.2440  -30.4790 N.3    15  ASN15      -0.1240
     14  CA        -2.9880  -82.4800  -29.7830 C.3    15  ASN15       0.1653
     15  C         -4.0600  -83.2000  -30.5950 C.2    15  ASN15       0.2266
     16  O         -5.2630  -83.0700  -30.2980 O.2    15  ASN15      -0.2867
     17  CB        -3.4840  -82.1950  -28.3560 C.3    15  ASN15       0.1155
     18  CG        -2.4370  -81.5130  -27.4800 C.2    15  ASN15       0.2627
     19  OD1       -2.4300  -80.2930  -27.3510 O.2    15  ASN15      -0.2716
     20  ND2       -1.5560  -82.3040  -26.8500 N.am   15  ASN15      -0.0877
     21  N          3.6640  -78.0680  -20.8960 N.3    99  GLY99      -0.1210
     22  CA         3.4100  -79.4840  -20.6260 C.3    99  GLY99       0.1956
     23  C          4.7520  -80.1580  -20.6600 C.2    99  GLY99       0.2612
     24  O          5.6920  -79.6770  -20.0220 O.2    99  GLY99      -0.2717
     25  N          4.8540  -81.2430  -21.4350 N.am  100  LEU100     -0.1965
     26  CA         6.1530  -81.8380  -21.7810 C.3   100  LEU100      0.1728
     27  C          7.0170  -80.8550  -22.5480 C.2   100  LEU100      0.2616
     28  O          8.2420  -80.7370  -22.2930 O.2   100  LEU100     -0.2715
     29  CB         5.9680  -83.1070  -22.6110 C.3   100  LEU100      0.0311
     30  CG         7.2800  -83.7420  -23.0790 C.3   100  LEU100      0.0022
     31  CD1        8.2090  -84.0470  -21.8570 C.3   100  LEU100      0.0001
     32  CD2        7.0460  -84.9700  -23.9480 C.3   100  LEU100      0.0001
     33  N          6.3820  -80.1590  -23.5010 N.am  101  TYR101     -0.1974
     34  CA         7.0210  -79.0630  -24.2170 C.3   101  TYR101      0.1639
     35  C          6.6050  -77.7080  -23.6500 C.2   101  TYR101      0.2290
     36  O          5.6550  -77.6180  -22.8700 O.2   101  TYR101     -0.2864
     37  CB         6.7730  -79.1760  -25.7140 C.3   101  TYR101      0.0560
     38  CG         7.2090  -80.5120  -26.2490 C.ar  101  TYR101     -0.0198
     39  CD1        8.5660  -80.8510  -26.3180 C.ar  101  TYR101     -0.0009
     40  CD2        6.2720  -81.4540  -26.6360 C.ar  101  TYR101     -0.0009
     41  CE1        8.9740  -82.1120  -26.7940 C.ar  101  TYR101      0.0417
     42  CE2        6.6630  -82.7170  -27.1240 C.ar  101  TYR101      0.0417
     43  CZ         8.0030  -83.0330  -27.1960 C.ar  101  TYR101      0.1957
     44  OH         8.3630  -84.2730  -27.6810 O.3   101  TYR101     -0.2866
     45  N          5.2700  -78.2100  -17.6540 N.3   169  ASN169     -0.1240
     46  CA         4.1840  -78.5770  -16.7310 C.3   169  ASN169      0.1653
     47  C          3.7200  -77.4290  -15.8050 C.2   169  ASN169      0.2266
     48  O          3.5290  -77.6060  -14.5690 O.2   169  ASN169     -0.2867
     49  CB         4.5490  -79.8520  -15.9370 C.3   169  ASN169      0.1155
     50  CG         4.9120  -81.0250  -16.8420 C.2   169  ASN169      0.2627
     51  OD1        6.0560  -81.4910  -16.8320 O.2   169  ASN169     -0.2716
     52  ND2        3.9500  -81.5040  -17.6260 N.am  169  ASN169     -0.0877
     53  N          4.9170  -75.3480  -26.6040 N.3   208  ALA208     -0.1231
     54  CA         3.6080  -75.7740  -26.1240 C.3   208  ALA208      0.1694
     55  C          3.3320  -74.9770  -24.8500 C.2   208  ALA208      0.2592
     56  O          4.2560  -74.4830  -24.2500 O.2   208  ALA208     -0.2718
     57  CB         3.5960  -77.2550  -25.8430 C.3   208  ALA208      0.0304
     58  N          2.0820  -74.8200  -24.4400 N.am  209  ASP209     -0.1974
     59  CA         0.8980  -75.3600  -25.1080 C.3   209  ASP209      0.1709
     60  C          0.0120  -74.2890  -25.7200 C.2   209  ASP209      0.2293
     61  O         -0.7160  -74.5660  -26.6670 O.2   209  ASP209     -0.2864
     62  CB         0.0680  -76.1500  -24.1280 C.3   209  ASP209      0.1436
     63  CG         0.4670  -77.5850  -24.0940 C.2   209  ASP209      0.3671
     64  OD1       -0.0680  -78.3570  -24.9200 O.co2 209  ASP209     -0.2456
     65  OD2        1.3420  -77.9090  -23.2700 O.co2 209  ASP209     -0.2456
     66  N         -3.8520  -79.0870  -16.9320 N.3   227  GLY227     -0.1210
     67  CA        -2.5520  -78.7610  -17.5000 C.3   227  GLY227      0.1956
     68  C         -2.3740  -79.0660  -18.9910 C.2   227  GLY227      0.2612
     69  O         -3.2210  -79.7000  -19.6340 O.2   227  GLY227     -0.2717
     70  N         -1.2560  -78.6080  -19.5340 N.am  228  GLY228     -0.1942
     71  CA        -0.8580  -78.9280  -20.9080 C.3   228  GLY228      0.2014
     72  C         -1.9910  -78.6240  -21.8660 C.2   228  GLY228      0.2638
     73  O         -2.4640  -77.4890  -21.9380 O.2   228  GLY228     -0.2714
     74  N         -2.4470  -79.6580  -22.5670 N.am  229  ARG229     -0.1977
     75  CA        -3.3860  -79.5140  -23.6560 C.3   229  ARG229      0.1597
     76  C         -4.7240  -78.8620  -23.2960 C.2   229  ARG229      0.2287
     77  O         -5.4400  -78.4150  -24.1950 O.2   229  ARG229     -0.2864
     78  CB        -3.6450  -80.8750  -24.3030 C.3   229  ARG229      0.0334
     79  CG        -4.3910  -81.8920  -23.4400 C.3   229  ARG229      0.0492
     80  CD        -4.2400  -83.2920  -24.0660 C.3   229  ARG229      0.2205
     81  NE        -5.0770  -84.2830  -23.4070 N.pl3 229  ARG229     -0.0865
     82  CZ        -5.1840  -85.5540  -23.8020 C.cat 229  ARG229      0.5346
     83  NH1       -4.4810  -85.9770  -24.8450 N.pl3 229  ARG229      0.1354
     84  NH2       -5.9830  -86.4130  -23.1550 N.pl3 229  ARG229      0.1354
@<TRIPOS>BOND
     1    15    16    2
     2    15    14    1
     3    13    14    1
     4     3     2    1
     5     3     4    2
     6     2     1    1
     7     2     5    1
     8    14    17    1
     9     9     7   ar
    10     9    11   ar
    11     7     6   ar
    12    11    12    1
    13    11    10   ar
    14     6     5    1
    15     6     8   ar
    16    17    18    1
    17    10     8   ar
    18    44    43    1
    19    18    19    2
    20    18    20   am
    21    43    42   ar
    22    43    41   ar
    23    42    40   ar
    24    41    39   ar
    25    61    60    2
    26    40    38   ar
    27    53    54    1
    28    39    38   ar
    29    38    37    1
    30    54    57    1
    31    54    55    1
    32    60    59    1
    33    37    34    1
    34    59    58    1
    35    59    62    1
    36    64    63   ar
    37    55    58   am
    38    55    56    2
    39    83    82    1
    40    78    75    1
    41    78    79    1
    42    34    35    1
    43    34    33    1
    44    77    76    2
    45    62    63    1
    46    63    65   ar
    47    80    79    1
    48    80    81    1
    49    32    30    1
    50    82    81    2
    51    82    84    1
    52    75    76    1
    53    75    74    1
    54    35    36    2
    55    33    27   am
    56    30    29    1
    57    30    31    1
    58    29    26    1
    59    74    72   am
    60    27    28    2
    61    27    26    1
    62    73    72    2
    63    72    71    1
    64    26    25    1
    65    25    23   am
    66    71    70    1
    67    21    22    1
    68    23    22    1
    69    23    24    2
    70    69    68    2
    71    70    68   am
    72    68    67    1
    73    45    46    1
    74    52    50   am
    75    67    66    1
    76    50    51    2
    77    50    49    1
    78    46    49    1
    79    46    47    1
    80    47    48    2
