@<TRIPOS>MOLECULE
tmp/2jedB00.pdb
 173 162 0 0 0
SMALL
GASTEIGER

@<TRIPOS>ATOM
      1  N         60.7610  -30.7010   -2.9440 N.3    12  LEU12      -0.1231
      2  CA        60.2670  -29.3760   -3.3310 C.3    12  LEU12       0.1693
      3  C         58.7670  -29.2780   -3.0270 C.2    12  LEU12       0.2592
      4  O         58.3100  -28.3270   -2.4140 O.2    12  LEU12      -0.2718
      5  CB        60.6150  -29.0520   -4.7990 C.3    12  LEU12       0.0284
      6  CG        62.1170  -28.8680   -5.1020 C.3    12  LEU12       0.0019
      7  CD1       62.4510  -28.8060   -6.5950 C.3    12  LEU12       0.0001
      8  CD2       62.7030  -27.6460   -4.3520 C.3    12  LEU12       0.0001
      9  N         58.0170  -30.2940   -3.4090 N.am   13  GLY13      -0.1957
     10  CA        56.6270  -30.3570   -3.0580 C.3    13  GLY13       0.1869
     11  C         55.9910  -31.6290   -3.5520 C.2    13  GLY13       0.2309
     12  O         56.6070  -32.4080   -4.2910 O.2    13  GLY13      -0.2863
     13  N         50.8190  -33.1800   -9.3620 N.3    17  PHE17      -0.1241
     14  CA        51.9930  -33.3720  -10.2230 C.3    17  PHE17       0.1605
     15  C         52.9160  -34.4950   -9.7570 C.2    17  PHE17       0.2264
     16  O         53.9260  -34.7840  -10.4160 O.2    17  PHE17      -0.2867
     17  CB        52.8170  -32.0700  -10.2840 C.3    17  PHE17       0.0534
     18  CG        53.0530  -31.4280   -8.9350 C.ar   17  PHE17      -0.0203
     19  CD1       52.2030  -30.4230   -8.4660 C.ar   17  PHE17      -0.0042
     20  CD2       54.1160  -31.8260   -8.1320 C.ar   17  PHE17      -0.0042
     21  CE1       52.4090  -29.8250   -7.2240 C.ar   17  PHE17      -0.0003
     22  CE2       54.3240  -31.2500   -6.8930 C.ar   17  PHE17      -0.0003
     23  CZ        53.4720  -30.2440   -6.4310 C.ar   17  PHE17      -0.0000
     24  N         58.2050  -33.8490   -6.3790 N.3    20  VAL20      -0.1245
     25  CA        59.3570  -33.2270   -7.0250 C.3    20  VAL20       0.1561
     26  C         60.4700  -33.0040   -5.9840 C.2    20  VAL20       0.2260
     27  O         60.2140  -32.5100   -4.8780 O.2    20  VAL20      -0.2867
     28  CB        58.9530  -31.9380   -7.7910 C.3    20  VAL20       0.0252
     29  CG1       60.1630  -31.2850   -8.5090 C.3    20  VAL20       0.0019
     30  CG2       57.8580  -32.2650   -8.8020 C.3    20  VAL20       0.0019
     31  N         65.5650  -30.4680  -10.7850 N.3    33  ALA33      -0.1245
     32  CA        64.3030  -30.8160  -10.1340 C.3    33  ALA33       0.1562
     33  C         63.9640  -32.2050  -10.6560 C.2    33  ALA33       0.2260
     34  O         63.9480  -32.4210  -11.8740 O.2    33  ALA33      -0.2867
     35  CB        63.2000  -29.8200  -10.4970 C.3    33  ALA33       0.0290
     36  N         61.1120  -35.1110  -10.7860 N.3    35  LYS35      -0.1245
     37  CA        59.7800  -35.5950  -10.5260 C.3    35  LYS35       0.1561
     38  C         59.8310  -37.1200  -10.4840 C.2    35  LYS35       0.2260
     39  O         60.3120  -37.7550  -11.4230 O.2    35  LYS35      -0.2867
     40  CB        58.8130  -35.1210  -11.6100 C.3    35  LYS35       0.0271
     41  CG        57.4730  -35.9270  -11.6390 C.3    35  LYS35       0.0035
     42  CD        56.4510  -35.1900  -12.4690 C.3    35  LYS35       0.0206
     43  CE        55.4340  -36.1060  -13.0660 C.3    35  LYS35       0.1093
     44  NZ        54.0950  -35.4620  -12.9760 N.3    35  LYS35      -0.1314
     45  N         52.4680  -36.2910  -20.7730 N.3    54  GLU54      -0.1245
     46  CA        53.3970  -35.3920  -20.1090 C.3    54  GLU54       0.1567
     47  C         54.8420  -35.6170  -20.5660 C.2    54  GLU54       0.2260
     48  O         55.5430  -34.6560  -20.8880 O.2    54  GLU54      -0.2867
     49  CB        53.2940  -35.5080  -18.5940 C.3    54  GLU54       0.0388
     50  CG        54.1720  -34.4760  -17.8410 C.3    54  GLU54       0.1160
     51  CD        53.9260  -34.4920  -16.3480 C.2    54  GLU54       0.3649
     52  OE1       53.2590  -35.4370  -15.8780 O.co2  54  GLU54      -0.2457
     53  OE2       54.3820  -33.5830  -15.6250 O.co2  54  GLU54      -0.2457
     54  N         56.9100  -32.8540  -22.6260 N.3    58  LEU58      -0.1245
     55  CA        58.2060  -32.4800  -22.0410 C.3    58  LEU58       0.1561
     56  C         59.4150  -32.7670  -22.9480 C.2    58  LEU58       0.2260
     57  O         60.3590  -31.9650  -23.0020 O.2    58  LEU58      -0.2867
     58  CB        58.3960  -33.1380  -20.6690 C.3    58  LEU58       0.0270
     59  CG        57.6480  -32.4980  -19.4960 C.3    58  LEU58       0.0019
     60  CD1       57.8380  -33.2900  -18.2000 C.3    58  LEU58       0.0001
     61  CD2       58.0710  -31.0070  -19.3100 C.3    58  LEU58       0.0001
     62  N         59.3550  -25.1460  -19.2770 N.3    68  THR68      -0.1218
     63  CA        60.1620  -25.8890  -18.3230 C.3    68  THR68       0.1862
     64  C         60.8850  -27.0440  -19.0630 C.2    68  THR68       0.2287
     65  O         60.2270  -27.8980  -19.6660 O.2    68  THR68      -0.2866
     66  CB        59.1330  -26.3570  -17.2560 C.3    68  THR68       0.1770
     67  OG1       59.5130  -25.9750  -15.9230 O.3    68  THR68      -0.2211
     68  CG2       58.7380  -27.7540  -17.3990 C.3    68  THR68       0.0375
     69  N         61.6210  -38.0010  -14.0530 N.3    82  PHE82      -0.1241
     70  CA        61.7580  -36.9320  -15.0420 C.3    82  PHE82       0.1605
     71  C         62.8090  -35.9870  -14.4900 C.2    82  PHE82       0.2264
     72  O         62.6150  -35.4170  -13.3990 O.2    82  PHE82      -0.2867
     73  CB        60.4690  -36.1030  -15.2020 C.3    82  PHE82       0.0534
     74  CG        59.2180  -36.9010  -15.5080 C.ar   82  PHE82      -0.0203
     75  CD1       58.7070  -37.8190  -14.5890 C.ar   82  PHE82      -0.0042
     76  CD2       58.4900  -36.6430  -16.6770 C.ar   82  PHE82      -0.0042
     77  CE1       57.4970  -38.5030  -14.8330 C.ar   82  PHE82      -0.0003
     78  CE2       57.2800  -37.3170  -16.9400 C.ar   82  PHE82      -0.0003
     79  CZ        56.7870  -38.2470  -16.0170 C.ar   82  PHE82      -0.0000
     80  N         64.4030  -32.6060  -14.5930 N.3    84  MET84      -0.1230
     81  CA        63.9830  -31.2680  -15.0600 C.3    84  MET84       0.1702
     82  C         65.0030  -30.1950  -14.6570 C.2    84  MET84       0.2592
     83  O         65.7180  -30.3710  -13.6720 O.2    84  MET84      -0.2718
     84  CB        62.6240  -30.8800  -14.4400 C.3    84  MET84       0.0401
     85  CG        61.5010  -31.9470  -14.5210 C.3    84  MET84       0.0596
     86  SD        60.8730  -32.1600  -16.2000 S.3    84  MET84      -0.1393
     87  CE        60.2540  -30.4880  -16.5230 C.3    84  MET84       0.0692
     88  N         65.0460  -29.0780  -15.3930 N.am   85  GLU85      -0.1966
     89  CA        65.7740  -27.8860  -14.9200 C.3    85  GLU85       0.1733
     90  C         65.1580  -27.3660  -13.6240 C.2    85  GLU85       0.2616
     91  O         63.9260  -27.3470  -13.4560 O.2    85  GLU85      -0.2715
     92  CB        65.8310  -26.7740  -15.9820 C.3    85  GLU85       0.0429
     93  CG        64.4860  -26.0900  -16.2930 C.3    85  GLU85       0.1163
     94  CD        64.6270  -24.9300  -17.2760 C.2    85  GLU85       0.3649
     95  OE1       63.7110  -24.7590  -18.1090 O.co2  85  GLU85      -0.2457
     96  OE2       65.6480  -24.1970  -17.2310 O.co2  85  GLU85      -0.2457
     97  N         66.0300  -26.9900  -12.6990 N.am   86  TYR86      -0.1960
     98  CA        65.6090  -26.4580  -11.4300 C.3    86  TYR86       0.1771
     99  C         65.4310  -24.9340  -11.5080 C.2    86  TYR86       0.2619
    100  O         66.3430  -24.1900  -11.8790 O.2    86  TYR86      -0.2715
    101  CB        66.5660  -26.8750  -10.3280 C.3    86  TYR86       0.0574
    102  CG        66.3150  -26.1610   -9.0270 C.ar   86  TYR86      -0.0198
    103  CD1       65.0460  -26.1810   -8.4260 C.ar   86  TYR86      -0.0009
    104  CD2       67.3420  -25.4450   -8.3940 C.ar   86  TYR86      -0.0009
    105  CE1       64.8060  -25.5090   -7.2470 C.ar   86  TYR86       0.0417
    106  CE2       67.1140  -24.7800   -7.2000 C.ar   86  TYR86       0.0417
    107  CZ        65.8510  -24.8210   -6.6360 C.ar   86  TYR86       0.1957
    108  OH        65.6200  -24.1670   -5.4550 O.3    86  TYR86      -0.2866
    109  N         64.2200  -24.4940  -11.1690 N.am   87  LEU87      -0.1963
    110  CA        63.8010  -23.1080  -11.2710 C.3    87  LEU87       0.1728
    111  C         63.4400  -22.5840   -9.8960 C.2    87  LEU87       0.2616
    112  O         62.5030  -23.0550   -9.2390 O.2    87  LEU87      -0.2715
    113  CB        62.6480  -22.9640  -12.2630 C.3    87  LEU87       0.0311
    114  CG        63.1080  -23.3720  -13.6750 C.3    87  LEU87       0.0022
    115  CD1       61.9350  -23.8410  -14.5470 C.3    87  LEU87       0.0001
    116  CD2       63.9530  -22.2550  -14.3590 C.3    87  LEU87       0.0001
    117  N         64.1920  -21.5610   -9.5270 N.am   88  ASN88      -0.1972
    118  CA        64.3830  -21.0280   -8.1920 C.3    88  ASN88       0.1688
    119  C         63.7250  -19.6430   -7.9970 C.2    88  ASN88       0.2292
    120  O         63.7100  -19.1030   -6.8880 O.2    88  ASN88      -0.2864
    121  CB        65.9100  -20.8100   -8.0630 C.3    88  ASN88       0.1181
    122  CG        66.3700  -20.7860   -6.6590 C.2    88  ASN88       0.2629
    123  OD1       65.5550  -20.7910   -5.7190 O.2    88  ASN88      -0.2716
    124  ND2       67.6880  -20.7820   -6.4750 N.am   88  ASN88      -0.0877
    125  N         60.6200  -18.6080   -8.0420 N.3    90  GLY90      -0.1210
    126  CA        59.2710  -18.5300   -7.4610 C.3    90  GLY90       0.1956
    127  C         58.1520  -18.5260   -8.4960 C.2    90  GLY90       0.2611
    128  O         58.3190  -18.0490   -9.6200 O.2    90  GLY90      -0.2717
    129  N         56.9880  -19.0420   -8.1300 N.am   91  ASP91      -0.1973
    130  CA        55.8470  -18.9990   -9.0470 C.3    91  ASP91       0.1709
    131  C         55.0740  -17.6580   -8.9810 C.2    91  ASP91       0.2293
    132  O         55.1560  -16.9360   -7.9900 O.2    91  ASP91      -0.2864
    133  CB        54.9230  -20.2040   -8.7920 C.3    91  ASP91       0.1436
    134  CG        54.3650  -20.2040   -7.4070 C.2    91  ASP91       0.3671
    135  OD1       53.2600  -19.6650   -7.2130 O.co2  91  ASP91      -0.2456
    136  OD2       55.0350  -20.7110   -6.4890 O.co2  91  ASP91      -0.2456
    137  N         49.8360  -20.4790  -10.4820 N.3   134  ASP134     -0.1225
    138  CA        50.6670  -21.4650   -9.7860 C.3   134  ASP134      0.1805
    139  C         51.5900  -22.2740  -10.7260 C.2   134  ASP134      0.2597
    140  O         52.5980  -22.8080  -10.2860 O.2   134  ASP134     -0.2718
    141  CB        49.8070  -22.4820   -9.0070 C.3   134  ASP134      0.1424
    142  CG        48.5690  -21.8830   -8.3670 C.2   134  ASP134      0.3668
    143  OD1       48.4010  -22.2030   -7.1610 O.co2 134  ASP134     -0.2456
    144  OD2       47.7460  -21.1510   -9.0340 O.co2 134  ASP134     -0.2456
    145  N         51.2100  -22.3840  -11.9940 N.am  135  ASN135     -0.1974
    146  CA        51.9910  -23.0990  -13.0070 C.3   135  ASN135      0.1688
    147  C         52.9750  -22.2290  -13.7850 C.2   135  ASN135      0.2292
    148  O         53.6370  -22.7010  -14.7050 O.2   135  ASN135     -0.2864
    149  CB        51.0490  -23.8200  -13.9840 C.3   135  ASN135      0.1181
    150  CG        50.4210  -25.0640  -13.3640 C.2   135  ASN135      0.2629
    151  OD1       50.8070  -25.4840  -12.2760 O.2   135  ASN135     -0.2716
    152  ND2       49.4600  -25.6580  -14.0620 N.am  135  ASN135     -0.0877
    153  N         56.3840  -20.3090  -13.4060 N.3   137  LEU137     -0.1245
    154  CA        57.5710  -20.1170  -12.5760 C.3   137  LEU137      0.1561
    155  C         58.3970  -18.9950  -13.1600 C.2   137  LEU137      0.2260
    156  O         58.3120  -18.7030  -14.3620 O.2   137  LEU137     -0.2867
    157  CB        58.4330  -21.3990  -12.5220 C.3   137  LEU137      0.0270
    158  CG        57.9520  -22.6530  -11.7800 C.3   137  LEU137      0.0019
    159  CD1       58.9240  -23.8290  -11.9830 C.3   137  LEU137      0.0001
    160  CD2       57.7760  -22.3960  -10.2750 C.3   137  LEU137      0.0001
    161  N         55.0740  -24.4780  -16.4900 N.3   147  ALA147     -0.1231
    162  CA        55.3530  -25.7720  -15.8770 C.3   147  ALA147      0.1694
    163  C         54.1060  -26.6460  -15.8750 C.2   147  ALA147      0.2592
    164  O         53.0110  -26.1360  -16.0920 O.2   147  ALA147     -0.2718
    165  CB        55.8590  -25.5830  -14.4450 C.3   147  ALA147      0.0304
    166  N         54.2920  -27.9560  -15.6390 N.am  148  ASP148     -0.1974
    167  CA        53.2130  -28.9550  -15.4390 C.3   148  ASP148      0.1709
    168  C         52.3980  -29.2740  -16.6870 C.2   148  ASP148      0.2293
    169  O         51.3460  -28.6810  -16.9340 O.2   148  ASP148     -0.2864
    170  CB        52.2570  -28.5610  -14.2980 C.3   148  ASP148      0.1436
    171  CG        51.5600  -29.7710  -13.6520 C.2   148  ASP148      0.3671
    172  OD1       51.3940  -30.8300  -14.2940 O.co2 148  ASP148     -0.2456
    173  OD2       51.1880  -29.6680  -12.4670 O.co2 148  ASP148     -0.2456
@<TRIPOS>BOND
     1    57    56    2
     2    56    55    1
     3    54    55    1
     4    55    58    1
     5    48    47    2
     6    45    46    1
     7    58    59    1
     8    47    46    1
     9    46    49    1
    10    65    64    2
    11    59    61    1
    12    59    60    1
    13    62    63    1
    14    64    63    1
    15    49    50    1
    16    63    66    1
    17    95    94   ar
    18    50    51    1
    19    68    66    1
    20    94    96   ar
    21    94    93    1
    22    66    67    1
    23    78    76   ar
    24    78    79   ar
    25   169   168    2
    26   168   167    1
    27    76    74   ar
    28    87    86    1
    29   161   162    1
    30    51    52   ar
    31    51    53   ar
    32    93    92    1
    33    86    85    1
    34   164   163    2
    35    79    77   ar
    36    92    89    1
    37   162   163    1
    38   162   165    1
    39   163   166   am
    40   166   167    1
    41    74    73    1
    42    74    75   ar
    43   167   170    1
    44    88    89    1
    45    88    82   am
    46    73    70    1
    47    81    82    1
    48    81    80    1
    49    81    84    1
    50    70    71    1
    51    70    69    1
    52    89    90    1
    53    77    75   ar
    54   148   147    2
    55    82    83    2
    56   115   114    1
    57    85    84    1
    58    71    72    2
    59   156   155    2
    60   116   114    1
    61   170   171    1
    62   172   171   ar
    63   152   150   am
    64   149   150    1
    65   149   146    1
    66   147   146    1
    67   114   113    1
    68   171   173   ar
    69    90    91    2
    70    90    97   am
    71   153   154    1
    72   150   151    2
    73   155   154    1
    74    43    44    1
    75    43    42    1
    76   146   145    1
    77    97    98    1
    78   154   157    1
    79   157   158    1
    80    42    41    1
    81   113   110    1
    82   145   139   am
    83   159   158    1
    84   100    99    2
    85    34    33    2
    86   158   160    1
    87    41    40    1
    88    40    37    1
    89    99    98    1
    90    99   109   am
    91    98   101    1
    92    39    38    2
    93   110   109    1
    94   110   111    1
    95    36    37    1
    96    31    32    1
    97   139   140    2
    98   139   138    1
    99    33    32    1
   100    37    38    1
   101    35    32    1
   102   137   138    1
   103    16    15    2
   104   101   102    1
   105    17    14    1
   106    17    18    1
   107    14    15    1
   108    14    13    1
   109   111   117   am
   110   111   112    2
   111   138   141    1
   112   128   127    2
   113   117   118    1
   114   130   131    1
   115   130   133    1
   116   130   129    1
   117   144   142   ar
   118   102   103   ar
   119   102   104   ar
   120   141   142    1
   121   131   132    2
   122    18    19   ar
   123    18    20   ar
   124    30    28    1
   125   133   134    1
   126    29    28    1
   127   127   129   am
   128   127   126    1
   129    19    21   ar
   130   103   105   ar
   131   104   106   ar
   132   142   143   ar
   133   118   121    1
   134   118   119    1
   135    20    22   ar
   136   121   122    1
   137   125   126    1
   138   119   120    2
   139    28    25    1
   140   134   135   ar
   141   134   136   ar
   142   105   107   ar
   143    21    23   ar
   144   106   107   ar
   145    25    24    1
   146    25    26    1
   147    22    23   ar
   148   122   124   am
   149   122   123    2
   150   107   108    1
   151     7     6    1
   152    26    27    2
   153     6     5    1
   154     6     8    1
   155     5     2    1
   156    12    11    2
   157    11    10    1
   158     9    10    1
   159     9     3   am
   160     2     3    1
   161     2     1    1
   162     3     4    2
