@<TRIPOS>MOLECULE
tmp/2jenA00.pdb
 168 173 0 0 0
SMALL
GASTEIGER

@<TRIPOS>ATOM
      1  N        -46.7000  -23.1070   17.9660 N.3     7  PRO7       -0.2102
      2  CA       -45.9860  -22.0370   17.2940 C.3     7  PRO7        0.1504
      3  C        -44.5160  -22.0130   17.6890 C.2     7  PRO7        0.2576
      4  O        -44.1800  -22.1040   18.8670 O.2     7  PRO7       -0.2718
      5  CB       -46.6980  -20.7760   17.7830 C.3     7  PRO7        0.0282
      6  CG       -48.1180  -21.2470   18.0780 C.3     7  PRO7        0.0208
      7  CD       -47.8920  -22.6260   18.6750 C.3     7  PRO7        0.0893
      8  N        -43.6460  -21.8380   16.7000 N.am    8  SER8       -0.1953
      9  CA       -42.1980  -21.6750   16.8840 C.3     8  SER8        0.1924
     10  C        -41.5010  -22.9090   17.4110 C.2     8  SER8        0.2314
     11  O        -40.3240  -22.8490   17.7520 O.2     8  SER8       -0.2863
     12  CB       -41.8890  -20.4620   17.7510 C.3     8  SER8        0.2116
     13  OG       -42.3690  -19.2880   17.1410 O.3     8  SER8       -0.2180
     14  N        -38.6710  -25.5630   11.5510 N.3    21  PHE21      -0.1227
     15  CA       -39.2150  -24.4770   12.3650 C.3    21  PHE21       0.1736
     16  C        -40.6950  -24.2440   12.0570 C.2    21  PHE21       0.2595
     17  O        -41.0740  -24.0010   10.9080 O.2    21  PHE21      -0.2718
     18  CB       -38.4140  -23.2020   12.0350 C.3    21  PHE21       0.0547
     19  CG       -38.7220  -21.9890   12.8880 C.ar   21  PHE21      -0.0202
     20  CD1      -39.0170  -22.0880   14.2380 C.ar   21  PHE21      -0.0042
     21  CD2      -38.6290  -20.7380   12.3310 C.ar   21  PHE21      -0.0042
     22  CE1      -39.2540  -20.9460   15.0000 C.ar   21  PHE21      -0.0003
     23  CE2      -38.8930  -19.6140   13.0950 C.ar   21  PHE21      -0.0003
     24  CZ       -39.1890  -19.7150   14.4130 C.ar   21  PHE21      -0.0000
     25  N        -41.5390  -24.3610   13.0850 N.am   22  ASN22      -0.1960
     26  CA       -42.9820  -24.2030   12.9340 C.3    22  ASN22       0.1819
     27  C        -43.3070  -22.7220   12.9740 C.2    22  ASN22       0.2621
     28  O        -43.9250  -22.1890   13.9150 O.2    22  ASN22      -0.2715
     29  CB       -43.7400  -25.0040   14.0010 C.3    22  ASN22       0.1195
     30  CG       -45.1350  -25.3460   13.5590 C.2    22  ASN22       0.2630
     31  OD1      -45.3950  -25.4060   12.3470 O.2    22  ASN22      -0.2716
     32  ND2      -46.0070  -25.7030   14.4800 N.am   22  ASN22      -0.0877
     33  N        -42.8790  -22.0200   11.9140 N.am   23  ASN23      -0.1958
     34  CA       -42.9280  -20.5570   11.8320 C.3    23  ASN23       0.1819
     35  C        -44.3020  -20.1040   11.3880 C.2    23  ASN23       0.2621
     36  O        -44.7020  -20.3980   10.2680 O.2    23  ASN23      -0.2715
     37  CB       -41.8550  -20.0880   10.8430 C.3    23  ASN23       0.1195
     38  CG       -41.7960  -18.6080   10.6560 C.2    23  ASN23       0.2630
     39  OD1      -42.7140  -17.9030   10.9700 O.2    23  ASN23      -0.2716
     40  ND2      -40.6880  -18.1470   10.1010 N.am   23  ASN23      -0.0877
     41  N        -45.0220  -19.4290   12.2920 N.am   24  VAL24      -0.1963
     42  CA       -46.3700  -18.9700   12.0580 C.3    24  VAL24       0.1727
     43  C        -46.4520  -17.4460   12.1930 C.2    24  VAL24       0.2616
     44  O        -47.4000  -16.9100   12.7660 O.2    24  VAL24      -0.2715
     45  CB       -47.3910  -19.7000   12.9520 C.3    24  VAL24       0.0290
     46  CG1      -47.4060  -21.1860   12.5870 C.3    24  VAL24       0.0023
     47  CG2      -47.1240  -19.5330   14.4550 C.3    24  VAL24       0.0023
     48  N        -45.5020  -16.7390   11.5710 N.am   25  TRP25      -0.1974
     49  CA       -45.3250  -15.3310   11.8420 C.3    25  TRP25       0.1640
     50  C        -46.5070  -14.4430   11.4610 C.2    25  TRP25       0.2290
     51  O        -46.6640  -13.3540   12.0170 O.2    25  TRP25      -0.2864
     52  CB       -44.0880  -14.7880   11.1590 C.3    25  TRP25       0.0576
     53  CG       -44.0740  -14.6870    9.6720 C.ar   25  TRP25       0.0006
     54  CD1      -43.6390  -15.6370    8.7740 C.ar   25  TRP25       0.0946
     55  CD2      -44.4150  -13.5380    8.8910 C.ar   25  TRP25       0.0152
     56  NE1      -43.6970  -15.1320    7.4960 N.ar   25  TRP25      -0.2442
     57  CE2      -44.1500  -13.8530    7.5530 C.ar   25  TRP25       0.0810
     58  CE3      -44.8630  -12.2570    9.2150 C.ar   25  TRP25       0.0012
     59  CZ2      -44.3440  -12.9460    6.5180 C.ar   25  TRP25       0.0191
     60  CZ3      -45.0770  -11.3520    8.1810 C.ar   25  TRP25       0.0001
     61  CH2      -44.8280  -11.7210    6.8520 C.ar   25  TRP25       0.0015
     62  N        -44.5410  -19.5350    7.4460 N.3    61  TYR61      -0.1241
     63  CA       -43.4310  -20.0010    6.6300 C.3    61  TYR61       0.1605
     64  C        -42.7870  -21.1870    7.3490 C.2    61  TYR61       0.2264
     65  O        -41.6380  -21.1120    7.8010 O.2    61  TYR61      -0.2867
     66  CB       -42.4380  -18.8720    6.4100 C.3    61  TYR61       0.0534
     67  CG       -41.2200  -19.1900    5.5410 C.ar   61  TYR61      -0.0201
     68  CD1      -41.3480  -19.6540    4.2290 C.ar   61  TYR61      -0.0009
     69  CD2      -39.9360  -19.0640    6.0340 C.ar   61  TYR61      -0.0009
     70  CE1      -40.2440  -19.8840    3.4160 C.ar   61  TYR61       0.0417
     71  CE2      -38.8240  -19.3040    5.2410 C.ar   61  TYR61       0.0417
     72  CZ       -38.9850  -19.7850    3.9580 C.ar   61  TYR61       0.1957
     73  OH       -37.8660  -19.9800    3.1860 O.3    61  TYR61      -0.2866
     74  N        -31.9730  -17.0780   12.7870 N.3    69  HIS69      -0.1226
     75  CA       -33.3520  -16.6570   12.5310 C.3    69  HIS69       0.1752
     76  C        -33.9120  -15.9590   13.7640 C.2    69  HIS69       0.2596
     77  O        -34.5680  -16.5650   14.6030 O.2    69  HIS69      -0.2718
     78  CB       -34.2680  -17.8100   12.1290 C.3    69  HIS69       0.0759
     79  CG       -35.6010  -17.3250   11.6590 C.ar   69  HIS69       0.0818
     80  ND1      -35.8630  -17.0950   10.3260 N.ar   69  HIS69      -0.2268
     81  CD2      -36.6910  -16.9100   12.3470 C.ar   69  HIS69       0.1154
     82  CE1      -37.0800  -16.5820   10.2220 C.ar   69  HIS69       0.1986
     83  NE2      -37.6050  -16.4570   11.4340 N.ar   69  HIS69      -0.2212
     84  N        -33.5950  -14.6770   13.9100 N.am   70  TRP70      -0.1976
     85  CA       -33.9310  -13.9170   15.1150 C.3    70  TRP70       0.1640
     86  C        -33.5660  -14.7330   16.3570 C.2    70  TRP70       0.2290
     87  O        -34.3380  -14.8660   17.3020 O.2    70  TRP70      -0.2864
     88  CB       -35.3950  -13.4900   15.0890 C.3    70  TRP70       0.0576
     89  CG       -35.6320  -12.3000   14.1790 C.ar   70  TRP70       0.0006
     90  CD1      -35.6150  -10.9880   14.5590 C.ar   70  TRP70       0.0946
     91  CD2      -35.9030  -12.3020   12.7770 C.ar   70  TRP70       0.0152
     92  NE1      -35.8780  -10.1870   13.4860 N.ar   70  TRP70      -0.2442
     93  CE2      -36.0450  -10.9600   12.3750 C.ar   70  TRP70       0.0810
     94  CE3      -36.0210  -13.2970   11.8180 C.ar   70  TRP70       0.0012
     95  CZ2      -36.3140  -10.6040   11.0690 C.ar   70  TRP70       0.0191
     96  CZ3      -36.2650  -12.9340   10.5220 C.ar   70  TRP70       0.0001
     97  CH2      -36.4040  -11.5960   10.1620 C.ar   70  TRP70       0.0015
     98  N        -35.2760  -18.6450    1.5090 N.3   109  ASP109     -0.1239
     99  CA       -35.2170  -17.3000    2.1120 C.3   109  ASP109      0.1674
    100  C        -33.8420  -17.1400    2.7070 C.2   109  ASP109      0.2266
    101  O        -33.4330  -17.9280    3.5810 O.2   109  ASP109     -0.2867
    102  CB       -36.2980  -17.1290    3.1840 C.3   109  ASP109      0.1410
    103  CG       -36.7000  -15.7000    3.4520 C.2   109  ASP109      0.3668
    104  OD1      -36.5970  -14.8160    2.5800 O.co2 109  ASP109     -0.2456
    105  OD2      -37.2120  -15.4400    4.5330 O.co2 109  ASP109     -0.2456
    106  N        -31.1120  -14.5360    4.4050 N.3   111  TRP111     -0.1241
    107  CA       -31.0460  -13.3070    5.1650 C.3   111  TRP111      0.1605
    108  C        -29.6290  -12.7830    5.1990 C.2   111  TRP111      0.2264
    109  O        -28.6850  -13.5600    5.3720 O.2   111  TRP111     -0.2867
    110  CB       -31.5140  -13.5220    6.5910 C.3   111  TRP111      0.0550
    111  CG       -32.9480  -13.8180    6.7310 C.ar  111  TRP111      0.0003
    112  CD1      -33.5250  -15.0030    7.1380 C.ar  111  TRP111      0.0946
    113  CD2      -34.0200  -12.8940    6.5150 C.ar  111  TRP111      0.0152
    114  NE1      -34.8910  -14.8560    7.1650 N.ar  111  TRP111     -0.2442
    115  CE2      -35.2150  -13.5630    6.7940 C.ar  111  TRP111      0.0810
    116  CE3      -34.0820  -11.5590    6.1170 C.ar  111  TRP111      0.0012
    117  CZ2      -36.4320  -12.9470    6.6970 C.ar  111  TRP111      0.0191
    118  CZ3      -35.2960  -10.9530    6.0360 C.ar  111  TRP111      0.0001
    119  CH2      -36.4610  -11.6280    6.3250 C.ar  111  TRP111      0.0015
    120  N        -30.9490  -11.7560   18.5570 N.3   120  TRP120     -0.1241
    121  CA       -32.3760  -12.0310   18.5010 C.3   120  TRP120      0.1605
    122  C        -33.1920  -10.8310   18.0230 C.2   120  TRP120      0.2264
    123  O        -34.3320  -10.9920   17.5920 O.2   120  TRP120     -0.2867
    124  CB       -32.8940  -12.5050   19.8680 C.3   120  TRP120      0.0550
    125  CG       -32.7670  -11.4890   20.9170 C.ar  120  TRP120      0.0003
    126  CD1      -31.6930  -11.2910   21.7180 C.ar  120  TRP120      0.0946
    127  CD2      -33.7250  -10.4940   21.2680 C.ar  120  TRP120      0.0152
    128  NE1      -31.9290  -10.2450   22.5740 N.ar  120  TRP120     -0.2442
    129  CE2      -33.1650   -9.7270   22.3030 C.ar  120  TRP120      0.0810
    130  CE3      -34.9950  -10.1660   20.8040 C.ar  120  TRP120      0.0012
    131  CZ2      -33.8450   -8.6660   22.8910 C.ar  120  TRP120      0.0191
    132  CZ3      -35.6720   -9.1160   21.4020 C.ar  120  TRP120      0.0001
    133  CH2      -35.0920   -8.3830   22.4140 C.ar  120  TRP120      0.0015
    134  N        -39.2650   -4.2250    2.3670 N.3   161  ILE161     -0.1231
    135  CA       -40.1710   -4.5890    3.4650 C.3   161  ILE161      0.1692
    136  C        -39.9070   -3.6380    4.6240 C.2   161  ILE161      0.2592
    137  O        -38.8340   -3.6330    5.2160 O.2   161  ILE161     -0.2718
    138  CB       -39.9180   -6.0560    3.9120 C.3   161  ILE161      0.0266
    139  CG1      -40.0090   -7.0030    2.7200 C.3   161  ILE161      0.0019
    140  CG2      -40.8930   -6.4010    5.0560 C.3   161  ILE161      0.0020
    141  CD1      -41.3450   -7.0240    2.0490 C.3   161  ILE161      0.0001
    142  N        -40.9320   -2.8900    4.9870 N.am  162  ASP162     -0.1960
    143  CA       -40.8690   -1.9860    6.1380 C.3   162  ASP162      0.1840
    144  C        -41.2630   -2.7610    7.3990 C.2   162  ASP162      0.2621
    145  O        -42.3900   -3.2200    7.5110 O.2   162  ASP162     -0.2715
    146  CB       -41.7630   -0.7910    5.8540 C.3   162  ASP162      0.1450
    147  CG       -41.6670    0.3060    6.8880 C.2   162  ASP162      0.3671
    148  OD1      -41.3520    0.0030    8.0420 O.co2 162  ASP162     -0.2456
    149  OD2      -41.9990    1.4850    6.5670 O.co2 162  ASP162     -0.2456
    150  N        -40.3190   -2.9220    8.3220 N.am  163  ALA163     -0.1977
    151  CA       -40.5080   -3.6390    9.5930 C.3   163  ALA163      0.1597
    152  C        -40.6770   -2.7190   10.7980 C.2   163  ALA163      0.2287
    153  O        -40.6250   -3.1880   11.9430 O.2   163  ALA163     -0.2864
    154  CB       -39.3440   -4.6090    9.8290 C.3   163  ALA163      0.0319
    155  N        -35.8950   -4.1930    5.1860 N.3   169  TRP169     -0.1241
    156  CA       -34.9220   -4.8140    4.3160 C.3   169  TRP169      0.1605
    157  C        -35.3480   -4.7820    2.8610 C.2   169  TRP169      0.2264
    158  O        -36.5100   -4.8910    2.5350 O.2   169  TRP169     -0.2867
    159  CB       -34.6260   -6.2540    4.7540 C.3   169  TRP169      0.0550
    160  CG       -35.8390   -7.0540    5.1450 C.ar  169  TRP169      0.0003
    161  CD1      -36.6270   -7.8470    4.3550 C.ar  169  TRP169      0.0946
    162  CD2      -36.3650   -7.1610    6.4600 C.ar  169  TRP169      0.0152
    163  NE1      -37.6250   -8.3970    5.1060 N.ar  169  TRP169     -0.2442
    164  CE2      -37.4930   -7.9780    6.3980 C.ar  169  TRP169      0.0810
    165  CE3      -36.0200   -6.5860    7.6750 C.ar  169  TRP169      0.0012
    166  CZ2      -38.2750   -8.2660    7.5300 C.ar  169  TRP169      0.0191
    167  CZ3      -36.7790   -6.8750    8.8040 C.ar  169  TRP169      0.0001
    168  CH2      -37.9000   -7.7090    8.7120 C.ar  169  TRP169      0.0015
@<TRIPOS>BOND
     1    98    99    1
     2   141   139    1
     3    99   100    1
     4    99   102    1
     5   134   135    1
     6   158   157    2
     7   104   103   ar
     8   100   101    2
     9   139   138    1
    10   157   156    1
    11   102   103    1
    12    73    72    1
    13    70    72   ar
    14    70    68   ar
    15   103   105   ar
    16   135   138    1
    17   135   136    1
    18   138   140    1
    19    72    71   ar
    20    68    67   ar
    21   156   159    1
    22   156   155    1
    23   161   163   ar
    24   161   160   ar
    25   106   107    1
    26   136   142   am
    27   136   137    2
    28   159   160    1
    29   142   143    1
    30   163   164   ar
    31   160   162   ar
    32   107   108    1
    33   107   110    1
    34   108   109    2
    35    71    69   ar
    36    67    69   ar
    37    67    66    1
    38   146   143    1
    39   146   147    1
    40   118   116   ar
    41   118   119   ar
    42   116   113   ar
    43   143   144    1
    44   119   117   ar
    45   164   162   ar
    46   164   166   ar
    47    66    63    1
    48   162   165   ar
    49   113   111   ar
    50   113   115   ar
    51    59    61   ar
    52    59    57   ar
    53   149   147   ar
    54   110   111    1
    55    63    64    1
    56    63    62    1
    57   117   115   ar
    58   111   112   ar
    59   115   114   ar
    60    61    60   ar
    61   147   148   ar
    62   112   114   ar
    63    64    65    2
    64   144   145    2
    65   144   150   am
    66    56    57   ar
    67    56    54   ar
    68   166   168   ar
    69    57    55   ar
    70   165   167   ar
    71    60    58   ar
    72   150   151    1
    73   168   167   ar
    74    54    53   ar
    75    55    58   ar
    76    55    53   ar
    77   151   154    1
    78   151   152    1
    79    53    52    1
    80    40    38   am
    81    97    96   ar
    82    97    95   ar
    83    82    80   ar
    84    82    83   ar
    85    36    35    2
    86    80    79   ar
    87    96    94   ar
    88    38    37    1
    89    38    39    2
    90   152   153    2
    91    37    34    1
    92    17    16    2
    93    95    93   ar
    94    52    49    1
    95    35    34    1
    96    35    41   am
    97    83    81   ar
    98    50    49    1
    99    50    51    2
   100    14    15    1
   101    48    49    1
   102    48    43   am
   103    79    78    1
   104    79    81   ar
   105    94    91   ar
   106    34    33    1
   107    33    27   am
   108    18    15    1
   109    18    19    1
   110    16    15    1
   111    16    25   am
   112    42    43    1
   113    42    41    1
   114    42    45    1
   115    78    75    1
   116    43    44    2
   117    21    19   ar
   118    21    23   ar
   119    31    30    2
   120    93    91   ar
   121    93    92   ar
   122    75    74    1
   123    75    76    1
   124    46    45    1
   125    91    89   ar
   126    19    20   ar
   127    26    27    1
   128    26    25    1
   129    26    29    1
   130    45    47    1
   131    27    28    2
   132    23    24   ar
   133    92    90   ar
   134    30    29    1
   135    30    32   am
   136    76    84   am
   137    76    77    2
   138    84    85    1
   139    89    90   ar
   140    89    88    1
   141    20    22   ar
   142    24    22   ar
   143    88    85    1
   144    85    86    1
   145    86    87    2
   146     8     9    1
   147     8     3   am
   148     9    10    1
   149     9    12    1
   150    13    12    1
   151     2     3    1
   152     2     5    1
   153     2     1    1
   154    10    11    2
   155   123   122    2
   156     3     4    2
   157     5     6    1
   158     1     7    1
   159   122   121    1
   160     6     7    1
   161   121   120    1
   162   121   124    1
   163   124   125    1
   164   130   127   ar
   165   130   132   ar
   166   125   127   ar
   167   125   126   ar
   168   127   129   ar
   169   132   133   ar
   170   126   128   ar
   171   129   128   ar
   172   129   131   ar
   173   133   131   ar
