@<TRIPOS>MOLECULE
tmp/2jenA01.pdb
 166 163 0 0 0
SMALL
GASTEIGER

@<TRIPOS>ATOM
      1  N        -45.5020  -16.7390   11.5710 N.3    25  TRP25      -0.1241
      2  CA       -45.3250  -15.3310   11.8420 C.3    25  TRP25       0.1605
      3  C        -46.5070  -14.4430   11.4610 C.2    25  TRP25       0.2264
      4  O        -46.6640  -13.3540   12.0170 O.2    25  TRP25      -0.2867
      5  CB       -44.0880  -14.7880   11.1590 C.3    25  TRP25       0.0550
      6  CG       -44.0740  -14.6870    9.6720 C.ar   25  TRP25       0.0003
      7  CD1      -43.6390  -15.6370    8.7740 C.ar   25  TRP25       0.0946
      8  CD2      -44.4150  -13.5380    8.8910 C.ar   25  TRP25       0.0152
      9  NE1      -43.6970  -15.1320    7.4960 N.ar   25  TRP25      -0.2442
     10  CE2      -44.1500  -13.8530    7.5530 C.ar   25  TRP25       0.0810
     11  CE3      -44.8630  -12.2570    9.2150 C.ar   25  TRP25       0.0012
     12  CZ2      -44.3440  -12.9460    6.5180 C.ar   25  TRP25       0.0191
     13  CZ3      -45.0770  -11.3520    8.1810 C.ar   25  TRP25       0.0001
     14  CH2      -44.8280  -11.7210    6.8520 C.ar   25  TRP25       0.0015
     15  N        -58.5940  -16.3480    2.5300 N.3    54  ASN54      -0.1225
     16  CA       -58.4880  -15.8880    1.1500 C.3    54  ASN54       0.1785
     17  C        -57.5250  -14.7270    0.9500 C.2    54  ASN54       0.2598
     18  O        -57.3420  -14.2850   -0.1950 O.2    54  ASN54      -0.2718
     19  CB       -59.8580  -15.5230    0.5820 C.3    54  ASN54       0.1169
     20  CG       -60.5010  -14.3550    1.2960 C.2    54  ASN54       0.2627
     21  OD1      -59.8250  -13.3490    1.5900 O.2    54  ASN54      -0.2716
     22  ND2      -61.8050  -14.4440    1.5710 N.am   54  ASN54      -0.0877
     23  N        -56.8920  -14.2300    2.0160 N.am   55  THR55      -0.1939
     24  CA       -56.1850  -12.9930    1.9020 C.3    55  THR55       0.2028
     25  C        -54.7620  -13.1710    1.4050 C.2    55  THR55       0.2643
     26  O        -54.2000  -14.2570    1.4230 O.2    55  THR55      -0.2714
     27  CB       -56.1860  -12.1690    3.1770 C.3    55  THR55       0.1808
     28  OG1      -55.3630  -12.8480    4.1260 O.3    55  THR55      -0.2208
     29  CG2      -57.6080  -11.9110    3.7250 C.3    55  THR55       0.0379
     30  N        -54.1920  -12.0620    0.9330 N.am   56  SER56      -0.1935
     31  CA       -52.8770  -12.0380    0.2990 C.3    56  SER56       0.2055
     32  C        -51.7170  -11.8740    1.2890 C.2    56  SER56       0.2644
     33  O        -50.5740  -11.7280    0.8980 O.2    56  SER56      -0.2714
     34  CB       -52.8400  -10.8930   -0.7250 C.3    56  SER56       0.2130
     35  OG       -52.8890   -9.6660   -0.0390 O.3    56  SER56      -0.2179
     36  N        -51.9910  -11.9630    2.5810 N.am   57  THR57      -0.1936
     37  CA       -50.9560  -11.9040    3.5750 C.3    57  THR57       0.2028
     38  C        -50.3400  -13.2890    3.7790 C.2    57  THR57       0.2642
     39  O        -51.0280  -14.2890    3.7830 O.2    57  THR57      -0.2714
     40  CB       -51.4970  -11.3860    4.8820 C.3    57  THR57       0.1808
     41  OG1      -52.4220  -12.3050    5.3670 O.3    57  THR57      -0.2208
     42  CG2      -52.1920  -10.0350    4.7800 C.3    57  THR57       0.0379
     43  N        -49.0370  -13.3470    3.9770 N.am   58  VAL58      -0.1977
     44  CA       -48.3880  -14.5950    4.3490 C.3    58  VAL58       0.1596
     45  C        -48.7850  -14.9570    5.7840 C.2    58  VAL58       0.2287
     46  O        -48.6000  -14.1410    6.6830 O.2    58  VAL58      -0.2864
     47  CB       -46.8530  -14.4760    4.2390 C.3    58  VAL58       0.0276
     48  CG1      -46.1770  -15.7480    4.7670 C.3    58  VAL58       0.0022
     49  CG2      -46.4210  -14.2120    2.7960 C.3    58  VAL58       0.0022
     50  N        -53.1440  -21.2530   -1.9970 N.3   103  THR103     -0.1218
     51  CA       -52.1710  -20.2890   -2.4610 C.3   103  THR103      0.1862
     52  C        -50.9400  -20.4030   -1.5820 C.2   103  THR103      0.2287
     53  O        -51.0460  -20.1980   -0.3450 O.2   103  THR103     -0.2866
     54  CB       -52.7490  -18.8690   -2.3950 C.3   103  THR103      0.1770
     55  OG1      -53.9080  -18.8130   -3.2510 O.3   103  THR103     -0.2211
     56  CG2      -51.7030  -17.8370   -2.8750 C.3   103  THR103      0.0375
     57  N        -35.0710  -14.2460   -1.9580 N.3   129  MET129     -0.1245
     58  CA       -35.9560  -15.3810   -2.0570 C.3   129  MET129      0.1570
     59  C        -35.7670  -16.0740   -3.3980 C.2   129  MET129      0.2261
     60  O        -35.6090  -15.4210   -4.4420 O.2   129  MET129     -0.2867
     61  CB       -37.4040  -14.9470   -1.9490 C.3   129  MET129      0.0387
     62  CG       -37.7090  -14.1520   -0.7360 C.3   129  MET129      0.0595
     63  SD       -39.4710  -14.0890   -0.4280 S.3   129  MET129     -0.1393
     64  CE       -39.7520  -15.6950    0.3470 C.3   129  MET129      0.0692
     65  N        -37.8200  -18.8930   -5.4180 N.3   131  TRP131     -0.1241
     66  CA       -39.0470  -19.6700   -5.4430 C.3   131  TRP131      0.1605
     67  C        -38.9540  -20.8020   -6.4670 C.2   131  TRP131      0.2264
     68  O        -38.8180  -20.5630   -7.6750 O.2   131  TRP131     -0.2867
     69  CB       -40.2880  -18.8380   -5.7820 C.3   131  TRP131      0.0550
     70  CG       -40.6130  -17.6770   -4.8930 C.ar  131  TRP131      0.0003
     71  CD1      -39.7690  -16.9060   -4.1390 C.ar  131  TRP131      0.0946
     72  CD2      -41.9090  -17.1010   -4.7630 C.ar  131  TRP131      0.0152
     73  NE1      -40.4850  -15.9070   -3.5100 N.ar  131  TRP131     -0.2442
     74  CE2      -41.7980  -16.0050   -3.8920 C.ar  131  TRP131      0.0810
     75  CE3      -43.1460  -17.4080   -5.2980 C.ar  131  TRP131      0.0012
     76  CZ2      -42.8910  -15.2110   -3.5430 C.ar  131  TRP131      0.0191
     77  CZ3      -44.2450  -16.6140   -4.9360 C.ar  131  TRP131      0.0001
     78  CH2      -44.0840  -15.5210   -4.0780 C.ar  131  TRP131      0.0015
     79  N        -50.4070  -19.7570   -7.3560 N.3   136  ASN136     -0.1225
     80  CA       -51.3940  -18.6890   -7.2510 C.3   136  ASN136      0.1785
     81  C        -50.9040  -17.4600   -6.5130 C.2   136  ASN136      0.2597
     82  O        -51.7030  -16.5770   -6.1900 O.2   136  ASN136     -0.2718
     83  CB       -52.7310  -19.1730   -6.6760 C.3   136  ASN136      0.1169
     84  CG       -53.3260  -20.3070   -7.4590 C.2   136  ASN136      0.2627
     85  OD1      -53.4690  -20.2060   -8.6820 O.2   136  ASN136     -0.2716
     86  ND2      -53.6910  -21.3910   -6.7750 N.am  136  ASN136     -0.0877
     87  N        -49.6070  -17.3940   -6.2490 N.am  137  ALA137     -0.1966
     88  CA       -49.0620  -16.2890   -5.4720 C.3   137  ALA137      0.1728
     89  C        -48.2710  -15.3240   -6.3240 C.2   137  ALA137      0.2617
     90  O        -48.2340  -15.4300   -7.5620 O.2   137  ALA137     -0.2715
     91  CB       -48.1850  -16.8040   -4.2650 C.3   137  ALA137      0.0334
     92  N        -47.6770  -14.3510   -5.6570 N.am  138  GLY138     -0.1941
     93  CA       -46.7870  -13.4100   -6.3100 C.3   138  GLY138      0.1998
     94  C        -45.9600  -12.7010   -5.2650 C.2   138  GLY138      0.2481
     95  O        -46.3420  -12.6420   -4.1010 O.2   138  GLY138     -0.2729
     96  N        -44.7930  -12.2000   -5.6540 N.am  139  PRO139     -0.2715
     97  CA       -43.8290  -11.6940   -4.7360 C.3   139  PRO139      0.1536
     98  C        -44.0050  -10.2310   -4.3720 C.2   139  PRO139      0.2598
     99  O        -44.8460   -9.5130   -4.9590 O.2   139  PRO139     -0.2715
    100  CB       -42.5170  -11.9060   -5.4920 C.3   139  PRO139      0.0310
    101  CG       -42.9110  -11.6120   -6.8980 C.3   139  PRO139      0.0237
    102  CD       -44.2540  -12.2690   -7.0270 C.3   139  PRO139      0.0939
    103  N        -43.1890   -9.7880   -3.4230 N.am  140  ALA140     -0.1964
    104  CA       -43.1400   -8.3910   -3.0310 C.3   140  ALA140      0.1728
    105  C        -42.3540   -7.6300   -4.0940 C.2   140  ALA140      0.2616
    106  O        -41.4200   -8.1460   -4.7210 O.2   140  ALA140     -0.2715
    107  CB       -42.4650   -8.2500   -1.6970 C.3   140  ALA140      0.0334
    108  N        -42.7190   -6.3830   -4.2740 N.am  141  GLY141     -0.1955
    109  CA       -41.9650   -5.5010   -5.1460 C.3   141  GLY141      0.1869
    110  C        -42.3940   -5.5700   -6.5810 C.2   141  GLY141      0.2309
    111  O        -43.4920   -6.0560   -6.9170 O.2   141  GLY141     -0.2863
    112  N        -39.0910   -3.5990   -1.0310 N.3   160  TYR160     -0.1227
    113  CA       -38.6000   -3.2040    0.2880 C.3   160  TYR160      0.1736
    114  C        -39.6630   -3.5260    1.3060 C.2   160  TYR160      0.2595
    115  O        -40.8280   -3.1910    1.1070 O.2   160  TYR160     -0.2718
    116  CB       -38.2780   -1.7210    0.3300 C.3   160  TYR160      0.0548
    117  CG       -37.8230   -1.2140    1.6790 C.ar  160  TYR160     -0.0200
    118  CD1      -38.7010   -0.5750    2.5470 C.ar  160  TYR160     -0.0009
    119  CD2      -36.5480   -1.4310    2.1140 C.ar  160  TYR160     -0.0009
    120  CE1      -38.2870   -0.1230    3.7880 C.ar  160  TYR160      0.0417
    121  CE2      -36.1230   -1.0000    3.3640 C.ar  160  TYR160      0.0417
    122  CZ       -37.0030   -0.3410    4.2010 C.ar  160  TYR160      0.1957
    123  OH       -36.5900    0.0960    5.4530 O.3   160  TYR160     -0.2866
    124  N        -39.2650   -4.2250    2.3670 N.am  161  ILE161     -0.1966
    125  CA       -40.1710   -4.5890    3.4650 C.3   161  ILE161      0.1727
    126  C        -39.9070   -3.6380    4.6240 C.2   161  ILE161      0.2616
    127  O        -38.8340   -3.6330    5.2160 O.2   161  ILE161     -0.2715
    128  CB       -39.9180   -6.0560    3.9120 C.3   161  ILE161      0.0290
    129  CG1      -40.0090   -7.0030    2.7200 C.3   161  ILE161      0.0022
    130  CG2      -40.8930   -6.4010    5.0560 C.3   161  ILE161      0.0023
    131  CD1      -41.3450   -7.0240    2.0490 C.3   161  ILE161      0.0001
    132  N        -40.9320   -2.8900    4.9870 N.am  162  ASP162     -0.1971
    133  CA       -40.8690   -1.9860    6.1380 C.3   162  ASP162      0.1709
    134  C        -41.2630   -2.7610    7.3990 C.2   162  ASP162      0.2293
    135  O        -42.3900   -3.2200    7.5110 O.2   162  ASP162     -0.2864
    136  CB       -41.7630   -0.7910    5.8540 C.3   162  ASP162      0.1436
    137  CG       -41.6670    0.3060    6.8880 C.2   162  ASP162      0.3671
    138  OD1      -41.3520    0.0030    8.0420 O.co2 162  ASP162     -0.2456
    139  OD2      -41.9990    1.4850    6.5670 O.co2 162  ASP162     -0.2456
    140  N        -35.9060   -6.7090   -0.5370 N.3   171  VAL171     -0.1245
    141  CA       -36.2610   -8.0840   -0.8430 C.3   171  VAL171      0.1561
    142  C        -36.1130   -8.2780   -2.3540 C.2   171  VAL171      0.2260
    143  O        -36.7400   -7.5850   -3.1660 O.2   171  VAL171     -0.2867
    144  CB       -37.6640   -8.4720   -0.2950 C.3   171  VAL171      0.0252
    145  CG1      -38.7790   -7.5330   -0.7550 C.3   171  VAL171      0.0019
    146  CG2      -37.9440   -9.9660   -0.6090 C.3   171  VAL171      0.0019
    147  N        -44.1840  -20.4880    2.0330 N.3   215  GLU215     -0.1245
    148  CA       -45.0690  -19.4170    2.5050 C.3   215  GLU215      0.1567
    149  C        -46.4650  -19.8230    2.1430 C.2   215  GLU215      0.2260
    150  O        -46.7430  -20.1820    0.9930 O.2   215  GLU215     -0.2867
    151  CB       -44.7680  -18.0720    1.8560 C.3   215  GLU215      0.0388
    152  CG       -43.4020  -17.4900    2.1980 C.3   215  GLU215      0.1160
    153  CD       -43.1980  -16.0970    1.6570 C.2   215  GLU215      0.3649
    154  OE1      -43.2040  -15.9190    0.4400 O.co2 215  GLU215     -0.2457
    155  OE2      -43.0360  -15.1640    2.4650 O.co2 215  GLU215     -0.2457
    156  N        -50.4300  -18.6460    2.1060 N.3   217  PHE217     -0.1241
    157  CA       -51.3830  -17.5800    2.1320 C.3   217  PHE217      0.1605
    158  C        -52.7580  -18.1200    2.5250 C.2   217  PHE217      0.2264
    159  O        -53.5010  -17.5140    3.3030 O.2   217  PHE217     -0.2867
    160  CB       -51.4250  -16.8980    0.7750 C.3   217  PHE217      0.0534
    161  CG       -50.1170  -16.3190    0.3420 C.ar  217  PHE217     -0.0203
    162  CD1      -49.1540  -17.1280   -0.2610 C.ar  217  PHE217     -0.0042
    163  CD2      -49.8280  -14.9890    0.5470 C.ar  217  PHE217     -0.0042
    164  CE1      -47.9210  -16.5970   -0.6550 C.ar  217  PHE217     -0.0003
    165  CE2      -48.5940  -14.4500    0.1070 C.ar  217  PHE217     -0.0003
    166  CZ       -47.6590  -15.2620   -0.4890 C.ar  217  PHE217     -0.0000
@<TRIPOS>BOND
     1    85    84    2
     2    68    67    2
     3    90    89    2
     4    84    86   am
     5    84    83    1
     6    79    80    1
     7    80    83    1
     8    80    81    1
     9   102   101    1
    10   102    96    1
    11   111   110    2
    12   101   100    1
    13   110   109    1
    14    81    87   am
    15    81    82    2
    16    67    66    1
    17    89    92   am
    18    89    88    1
    19    93    92    1
    20    93    94    1
    21    87    88    1
    22    69    66    1
    23    69    70    1
    24    96    94   am
    25    96    97    1
    26   100    97    1
    27    88    91    1
    28    66    65    1
    29    75    77   ar
    30    75    72   ar
    31    94    95    2
    32   109   108    1
    33    99    98    2
    34    77    78   ar
    35    70    72   ar
    36    70    71   ar
    37    72    74   ar
    38    97    98    1
    39   106   105    2
    40    60    59    2
    41    98   103   am
    42   108   105   am
    43    71    73   ar
    44   105   104    1
    45    78    76   ar
    46    74    76   ar
    47    74    73   ar
    48   103   104    1
    49    59    58    1
    50    55    54    1
    51   143   142    2
    52   104   107    1
    53    56    54    1
    54    51    54    1
    55    51    50    1
    56    51    52    1
    57   142   141    1
    58    58    57    1
    59    58    61    1
    60    61    62    1
    61    52    53    2
    62   112   113    1
    63   141   140    1
    64   141   144    1
    65   145   144    1
    66    62    63    1
    67    34    35    1
    68    34    31    1
    69   164   166   ar
    70   164   162   ar
    71   146   144    1
    72   166   165   ar
    73    63    64    1
    74   162   161   ar
    75    18    17    2
    76   165   163   ar
    77   113   116    1
    78   113   114    1
    79    31    30    1
    80    31    32    1
    81   116   117    1
    82   161   163   ar
    83   161   160    1
    84   154   153   ar
    85    19    16    1
    86    19    20    1
    87   160   157    1
    88    33    32    2
    89    30    25   am
    90    17    16    1
    91    17    23   am
    92   150   149    2
    93   115   114    2
    94    16    15    1
    95    32    36   am
    96    20    22   am
    97    20    21    2
    98   114   124   am
    99    25    26    2
   100    25    24    1
   101   153   152    1
   102   153   155   ar
   103   117   119   ar
   104   117   118   ar
   105   151   152    1
   106   151   148    1
   107    24    23    1
   108    24    27    1
   109   147   148    1
   110   131   129    1
   111   156   157    1
   112   119   121   ar
   113   157   158    1
   114   149   148    1
   115   124   125    1
   116   158   159    2
   117   118   120   ar
   118    36    37    1
   119   129   128    1
   120    49    47    1
   121    27    29    1
   122    27    28    1
   123   121   122   ar
   124   125   128    1
   125   125   126    1
   126    37    38    1
   127    37    40    1
   128    38    39    2
   129    38    43   am
   130   120   122   ar
   131   128   130    1
   132    43    44    1
   133   122   123    1
   134    47    44    1
   135    47    48    1
   136    44    45    1
   137   126   132   am
   138   126   127    2
   139    42    40    1
   140    40    41    1
   141   132   133    1
   142    45    46    2
   143   136   133    1
   144   136   137    1
   145   133   134    1
   146    12    14   ar
   147    12    10   ar
   148   139   137   ar
   149    14    13   ar
   150   137   138   ar
   151   134   135    2
   152     9    10   ar
   153     9     7   ar
   154    10     8   ar
   155    13    11   ar
   156     7     6   ar
   157     8    11   ar
   158     8     6   ar
   159     6     5    1
   160     5     2    1
   161     3     2    1
   162     3     4    2
   163     1     2    1
