@<TRIPOS>MOLECULE
tmp/2jeqA00.pdb
 213 209 0 0 0
SMALL
GASTEIGER

@<TRIPOS>ATOM
      1  N         31.1920    5.7360   12.6110 N.3    14  ASN14      -0.1240
      2  CA        32.2240    5.0580   13.4430 C.3    14  ASN14       0.1653
      3  C         33.3950    4.3970   12.6750 C.2    14  ASN14       0.2266
      4  O         33.8300    3.2450   12.9700 O.2    14  ASN14      -0.2867
      5  CB        31.5780    4.0460   14.4110 C.3    14  ASN14       0.1155
      6  CG        30.8550    4.7090   15.5620 C.2    14  ASN14       0.2627
      7  OD1       30.7010    5.9360   15.6070 O.2    14  ASN14      -0.2716
      8  ND2       30.3940    3.8900   16.5010 N.am   14  ASN14      -0.0877
      9  N         36.1210    8.7940   11.5100 N.3    17  GLU17      -0.1245
     10  CA        36.0030    9.7860   12.5940 C.3    17  GLU17       0.1567
     11  C         36.3520    9.2400   13.9740 C.2    17  GLU17       0.2260
     12  O         36.6120   10.0050   14.9150 O.2    17  GLU17      -0.2867
     13  CB        34.6330   10.4860   12.6210 C.3    17  GLU17       0.0388
     14  CG        33.5160    9.7950   13.3770 C.3    17  GLU17       0.1160
     15  CD        32.9630    8.5470   12.6860 C.2    17  GLU17       0.3649
     16  OE1       33.6230    7.9560   11.7810 O.co2  17  GLU17      -0.2457
     17  OE2       31.8220    8.1700   13.0440 O.co2  17  GLU17      -0.2457
     18  N         38.2690    7.9150   17.0480 N.3    19  ALA19      -0.1231
     19  CA        39.5580    8.2940   17.5820 C.3    19  ALA19       0.1694
     20  C         39.6290    7.9360   19.0440 C.2    19  ALA19       0.2592
     21  O         38.6370    8.1080   19.7880 O.2    19  ALA19      -0.2718
     22  CB        39.7800    9.8020   17.4320 C.3    19  ALA19       0.0304
     23  N         40.8160    7.5060   19.4590 N.am   20  VAL20      -0.1966
     24  CA        41.1120    7.2920   20.8820 C.3    20  VAL20       0.1727
     25  C         42.3880    7.9860   21.3200 C.2    20  VAL20       0.2616
     26  O         43.4220    7.9430   20.6420 O.2    20  VAL20      -0.2715
     27  CB        41.1240    5.7900   21.2950 C.3    20  VAL20       0.0290
     28  CG1       39.6750    5.2510   21.3600 C.3    20  VAL20       0.0023
     29  CG2       42.0050    4.9570   20.3570 C.3    20  VAL20       0.0023
     30  N         42.2590    8.6760   22.4480 N.am   21  ASN21      -0.1958
     31  CA        43.3100    9.5130   23.0080 C.3    21  ASN21       0.1819
     32  C         43.7460   10.6020   22.0400 C.2    21  ASN21       0.2621
     33  O         44.8950   11.0230   22.0710 O.2    21  ASN21      -0.2715
     34  CB        44.5020    8.6680   23.4500 C.3    21  ASN21       0.1195
     35  CG        44.2410    7.9160   24.7520 C.2    21  ASN21       0.2630
     36  OD1       44.8140    6.8480   24.9770 O.2    21  ASN21      -0.2716
     37  ND2       43.3740    8.4710   25.6170 N.am   21  ASN21      -0.0877
     38  N         42.8230   11.0350   21.1820 N.am   22  GLY22      -0.1954
     39  CA        43.0800   12.0970   20.2160 C.3    22  GLY22       0.1869
     40  C         43.6070   11.6660   18.8630 C.2    22  GLY22       0.2309
     41  O         43.8440   12.5130   18.0030 O.2    22  GLY22      -0.2863
     42  N         38.8360    1.6820   15.9500 N.3    28  ALA28      -0.1231
     43  CA        38.7970    1.9420   17.3990 C.3    28  ALA28       0.1694
     44  C         37.3980    1.8640   18.0090 C.2    28  ALA28       0.2592
     45  O         37.2440    1.6800   19.2180 O.2    28  ALA28      -0.2718
     46  CB        39.4580    3.2720   17.7180 C.3    28  ALA28       0.0304
     47  N         36.3770    1.9980   17.1720 N.am   29  TRP29      -0.1962
     48  CA        35.0090    1.9920   17.6410 C.3    29  TRP29       0.1771
     49  C         34.1960    0.7720   17.1420 C.2    29  TRP29       0.2620
     50  O         33.0630    0.9190   16.7100 O.2    29  TRP29      -0.2715
     51  CB        34.3170    3.3200   17.2980 C.3    29  TRP29       0.0590
     52  CG        34.8460    4.5430   18.0740 C.ar   29  TRP29       0.0006
     53  CD1       35.7650    4.5610   19.1310 C.ar   29  TRP29       0.0946
     54  CD2       34.4870    5.8940   17.8480 C.ar   29  TRP29       0.0152
     55  NE1       35.9680    5.8550   19.5570 N.ar   29  TRP29      -0.2442
     56  CE2       35.1910    6.6890   18.7950 C.ar   29  TRP29       0.0810
     57  CE3       33.5990    6.5240   16.9570 C.ar   29  TRP29       0.0012
     58  CZ2       35.0430    8.0820   18.8640 C.ar   29  TRP29       0.0191
     59  CZ3       33.4630    7.9110   17.0310 C.ar   29  TRP29       0.0001
     60  CH2       34.1870    8.6670   17.9790 C.ar   29  TRP29       0.0015
     61  N         34.8000   -0.4170   17.1770 N.am   30  GLY30      -0.1954
     62  CA        34.0400   -1.6810   16.9930 C.3    30  GLY30       0.1869
     63  C         33.7980   -2.1170   15.5440 C.2    30  GLY30       0.2309
     64  O         33.2290   -3.1910   15.2970 O.2    30  GLY30      -0.2863
     65  N         34.9380   16.0420   11.4020 N.3    95  HIS95      -0.1241
     66  CA        33.9100   15.4890   12.2980 C.3    95  HIS95       0.1621
     67  C         34.2460   15.6720   13.7910 C.2    95  HIS95       0.2264
     68  O         33.7240   16.5880   14.4230 O.2    95  HIS95      -0.2867
     69  CB        33.6750   13.9990   11.9800 C.3    95  HIS95       0.0745
     70  CG        32.3470   13.4650   12.4480 C.ar   95  HIS95       0.0817
     71  ND1       31.2090   13.5110   11.6670 N.ar   95  HIS95      -0.2268
     72  CD2       31.9780   12.8750   13.6120 C.ar   95  HIS95       0.1154
     73  CE1       30.2020   12.9660   12.3240 C.ar   95  HIS95       0.1986
     74  NE2       30.6400   12.5720   13.5100 N.ar   95  HIS95      -0.2212
     75  N         34.1420   19.0430   18.1910 N.3    99  TYR99      -0.1241
     76  CA        33.4600   18.6940   19.4560 C.3    99  TYR99       0.1605
     77  C         34.2750   19.0120   20.6950 C.2    99  TYR99       0.2264
     78  O         35.4330   18.6110   20.8040 O.2    99  TYR99      -0.2867
     79  CB        33.1650   17.1890   19.5210 C.3    99  TYR99       0.0534
     80  CG        31.9680   16.6970   18.7430 C.ar   99  TYR99      -0.0201
     81  CD1       30.6800   17.1810   19.0250 C.ar   99  TYR99      -0.0009
     82  CD2       32.0930   15.6730   17.7970 C.ar   99  TYR99      -0.0009
     83  CE1       29.5910   16.7360   18.3250 C.ar   99  TYR99       0.0417
     84  CE2       30.9790   15.2070   17.0860 C.ar   99  TYR99       0.0417
     85  CZ        29.7380   15.7350   17.3710 C.ar   99  TYR99       0.1957
     86  OH        28.6290   15.3010   16.7230 O.3    99  TYR99      -0.2866
     87  N         33.5520   17.6020   23.3770 N.3   101  SER101     -0.1202
     88  CA        33.5050   16.3300   24.1040 C.3   101  SER101      0.2020
     89  C         34.4630   15.2650   23.5280 C.2   101  SER101      0.2619
     90  O         34.5950   14.1620   24.0780 O.2   101  SER101     -0.2717
     91  CB        32.0720   15.8170   24.1020 C.3   101  SER101      0.2103
     92  OG        31.6830   15.5370   22.7660 O.3   101  SER101     -0.2182
     93  N         35.1270   15.5840   22.4070 N.am  102  VAL102     -0.1965
     94  CA        36.0480   14.6210   21.7660 C.3   102  VAL102      0.1727
     95  C         37.4670   15.0340   22.1720 C.2   102  VAL102      0.2616
     96  O         37.8780   16.1960   21.9770 O.2   102  VAL102     -0.2715
     97  CB        35.8530   14.5460   20.2020 C.3   102  VAL102      0.0290
     98  CG1       36.9400   13.7250   19.4980 C.3   102  VAL102      0.0023
     99  CG2       34.5050   13.9460   19.8620 C.3   102  VAL102      0.0023
    100  N         38.2020   14.0990   22.7650 N.am  103  GLN103     -0.1977
    101  CA        39.5750   14.3760   23.1830 C.3   103  GLN103      0.1601
    102  C         40.4140   14.7930   21.9910 C.2   103  GLN103      0.2287
    103  O         40.4450   14.1050   20.9790 O.2   103  GLN103     -0.2864
    104  CB        40.2070   13.1550   23.8340 C.3   103  GLN103      0.0394
    105  CG        41.3750   13.5220   24.7480 C.3   103  GLN103      0.0908
    106  CD        42.0770   12.2920   25.3010 C.2   103  GLN103      0.2608
    107  OE1       41.4350   11.4190   25.8960 O.2   103  GLN103     -0.2717
    108  NE2       43.3880   12.2020   25.0880 N.am  103  GLN103     -0.0878
    109  N         30.9950   19.3750   11.2070 N.3   145  ASN145     -0.1225
    110  CA        29.9550   18.4060   11.5170 C.3   145  ASN145      0.1785
    111  C         28.9360   19.0800   12.4150 C.2   145  ASN145      0.2597
    112  O         28.1700   19.9140   11.9350 O.2   145  ASN145     -0.2718
    113  CB        30.5300   17.1260   12.1400 C.3   145  ASN145      0.1169
    114  CG        29.4410   16.1720   12.6310 C.2   145  ASN145      0.2627
    115  OD1       28.4380   15.9480   11.9530 O.2   145  ASN145     -0.2716
    116  ND2       29.6170   15.6510   13.8420 N.am  145  ASN145     -0.0877
    117  N         28.9530   18.7610   13.7070 N.am  146  GLU146     -0.1979
    118  CA        28.0330   19.3990   14.6690 C.3   146  GLU146      0.1602
    119  C         28.7850   20.3660   15.5760 C.2   146  GLU146      0.2287
    120  O         29.4730   19.9640   16.5310 O.2   146  GLU146     -0.2864
    121  CB        27.2790   18.3550   15.4970 C.3   146  GLU146      0.0415
    122  CG        26.3300   17.4650   14.7050 C.3   146  GLU146      0.1163
    123  CD        25.6460   16.3950   15.5650 C.2   146  GLU146      0.3649
    124  OE1       26.1390   16.0810   16.6960 O.co2 146  GLU146     -0.2457
    125  OE2       24.6350   15.8310   15.0630 O.co2 146  GLU146     -0.2457
    126  N         20.8620   17.9360   10.6330 N.3   228  HIS228     -0.1241
    127  CA        20.6800   16.5620   11.0630 C.3   228  HIS228      0.1621
    128  C         19.3390   16.5610   11.7560 C.2   228  HIS228      0.2264
    129  O         18.8560   17.6090   12.2010 O.2   228  HIS228     -0.2867
    130  CB        21.7710   16.1730   12.0810 C.3   228  HIS228      0.0745
    131  CG        23.1520   16.1490   11.5140 C.ar  228  HIS228      0.0817
    132  ND1       24.2730   15.9630   12.2960 N.ar  228  HIS228     -0.2268
    133  CD2       23.6010   16.3020   10.2420 C.ar  228  HIS228      0.1154
    134  CE1       25.3440   15.9770   11.5240 C.ar  228  HIS228      0.1986
    135  NE2       24.9610   16.1780   10.2760 N.ar  228  HIS228     -0.2212
    136  N         17.1910   14.0030   14.5340 N.3   230  TYR230     -0.1241
    137  CA        16.9870   12.8540   15.4070 C.3   230  TYR230      0.1605
    138  C         15.8330   13.1240   16.3800 C.2   230  TYR230      0.2264
    139  O         15.8520   12.6590   17.5190 O.2   230  TYR230     -0.2867
    140  CB        18.2370   12.5720   16.2390 C.3   230  TYR230      0.0534
    141  CG        19.4700   12.0900   15.5070 C.ar  230  TYR230     -0.0201
    142  CD1       19.7320   10.7330   15.3890 C.ar  230  TYR230     -0.0009
    143  CD2       20.4190   12.9900   15.0410 C.ar  230  TYR230     -0.0009
    144  CE1       20.8660   10.2690   14.7530 C.ar  230  TYR230      0.0417
    145  CE2       21.5740   12.5420   14.3770 C.ar  230  TYR230      0.0417
    146  CZ        21.7830   11.1730   14.2530 C.ar  230  TYR230      0.1957
    147  OH        22.8990   10.7030   13.6520 O.3   230  TYR230     -0.2866
    148  N         14.0080   12.8770   20.3700 N.3   233  TRP233     -0.1241
    149  CA        15.1000   12.2090   21.0540 C.3   233  TRP233      0.1605
    150  C         14.6610   11.0230   21.9030 C.2   233  TRP233      0.2264
    151  O         15.3960   10.0410   22.0160 O.2   233  TRP233     -0.2867
    152  CB        15.8640   13.1860   21.9350 C.3   233  TRP233      0.0550
    153  CG        17.1240   12.5620   22.5080 C.ar  233  TRP233      0.0003
    154  CD1       17.3920   12.2490   23.8310 C.ar  233  TRP233      0.0946
    155  CD2       18.2630   12.1560   21.7590 C.ar  233  TRP233      0.0152
    156  NE1       18.6580   11.6910   23.9380 N.ar  233  TRP233     -0.2442
    157  CE2       19.2100   11.6250   22.6780 C.ar  233  TRP233      0.0810
    158  CE3       18.5950   12.2170   20.3850 C.ar  233  TRP233      0.0012
    159  CZ2       20.4690   11.1540   22.2660 C.ar  233  TRP233      0.0191
    160  CZ3       19.8310   11.7400   19.9760 C.ar  233  TRP233      0.0001
    161  CH2       20.7660   11.2230   20.9240 C.ar  233  TRP233      0.0015
    162  N         22.5330   13.4410    8.6310 N.3   287  GLU287     -0.1245
    163  CA        22.2820   12.3230    9.5230 C.3   287  GLU287      0.1567
    164  C         20.8000   12.3050    9.9990 C.2   287  GLU287      0.2260
    165  O         20.1720   13.3550   10.2620 O.2   287  GLU287     -0.2867
    166  CB        23.2470   12.3430   10.7370 C.3   287  GLU287      0.0388
    167  CG        24.7120   12.5620   10.4190 C.3   287  GLU287      0.1160
    168  CD        25.5590   12.7020   11.6950 C.2   287  GLU287      0.3649
    169  OE1       24.9300   12.6930   12.7690 O.co2 287  GLU287     -0.2457
    170  OE2       26.8180   12.8380   11.6160 O.co2 287  GLU287     -0.2457
    171  N         22.1410    7.6600    9.2560 N.3   325  TRP325     -0.1241
    172  CA        23.2430    7.4400   10.2090 C.3   325  TRP325      0.1605
    173  C         23.4190    5.9600   10.5850 C.2   325  TRP325      0.2264
    174  O         22.6410    5.4290   11.3380 O.2   325  TRP325     -0.2867
    175  CB        23.0690    8.2300   11.5150 C.3   325  TRP325      0.0550
    176  CG        24.2730    8.0170   12.4270 C.ar  325  TRP325      0.0003
    177  CD1       24.2980    7.3700   13.6390 C.ar  325  TRP325      0.0946
    178  CD2       25.6050    8.4180   12.1620 C.ar  325  TRP325      0.0152
    179  NE1       25.5830    7.3490   14.1420 N.ar  325  TRP325     -0.2442
    180  CE2       26.4020    8.0030   13.2630 C.ar  325  TRP325      0.0810
    181  CE3       26.2150    9.1140   11.1140 C.ar  325  TRP325      0.0012
    182  CZ2       27.7690    8.2470   13.3240 C.ar  325  TRP325      0.0191
    183  CZ3       27.5790    9.3420   11.1720 C.ar  325  TRP325      0.0001
    184  CH2       28.3350    8.9240   12.2700 C.ar  325  TRP325      0.0015
    185  N         26.1410    3.4820   12.3210 N.3   327  ASN327     -0.1240
    186  CA        27.4140    3.4600   13.0300 C.3   327  ASN327      0.1653
    187  C         28.0630    2.0420   13.0830 C.2   327  ASN327      0.2266
    188  O         29.0310    1.8190   13.8350 O.2   327  ASN327     -0.2867
    189  CB        27.2540    4.0770   14.4230 C.3   327  ASN327      0.1155
    190  CG        26.4520    3.1980   15.3860 C.2   327  ASN327      0.2627
    191  OD1       25.7480    2.2740   14.9740 O.2   327  ASN327     -0.2716
    192  ND2       26.5810    3.4800   16.6960 N.am  327  ASN327     -0.0877
    193  N         27.1900   -0.5740   14.5470 N.3   329  HIS329     -0.1241
    194  CA        26.7870   -1.3410   15.7150 C.3   329  HIS329      0.1621
    195  C         25.4320   -2.0250   15.4970 C.2   329  HIS329      0.2264
    196  O         24.4050   -1.3720   15.3160 O.2   329  HIS329     -0.2867
    197  CB        26.7670   -0.4800   16.9650 C.3   329  HIS329      0.0745
    198  CG        26.5430   -1.2750   18.2160 C.ar  329  HIS329      0.0817
    199  ND1       25.6080   -0.9200   19.1620 N.ar  329  HIS329     -0.2268
    200  CD2       27.1000   -2.4310   18.6500 C.ar  329  HIS329      0.1154
    201  CE1       25.6020   -1.8190   20.1300 C.ar  329  HIS329      0.1986
    202  NE2       26.5000   -2.7460   19.8480 N.ar  329  HIS329     -0.2212
    203  N         22.6060    1.3860   15.4410 N.3   335  PHE335     -0.1241
    204  CA        22.0340    2.0810   14.3120 C.3   335  PHE335      0.1605
    205  C         22.2560    1.3000   13.0330 C.2   335  PHE335      0.2264
    206  O         21.7440    1.7100   11.9890 O.2   335  PHE335     -0.2867
    207  CB        22.7650    3.4200   14.0880 C.3   335  PHE335      0.0534
    208  CG        22.2700    4.5830   14.9020 C.ar  335  PHE335     -0.0203
    209  CD1       21.1050    5.2650   14.5320 C.ar  335  PHE335     -0.0042
    210  CD2       23.0190    5.0640   15.9720 C.ar  335  PHE335     -0.0042
    211  CE1       20.6760    6.3780   15.2240 C.ar  335  PHE335     -0.0003
    212  CE2       22.6090    6.2070   16.7000 C.ar  335  PHE335     -0.0003
    213  CZ        21.4340    6.8630   16.3310 C.ar  335  PHE335     -0.0000
@<TRIPOS>BOND
     1   162   163    1
     2   171   172    1
     3   163   164    1
     4   163   166    1
     5   164   165    2
     6   172   173    1
     7   172   175    1
     8   133   135   ar
     9   133   131   ar
    10   135   134   ar
    11   167   166    1
    12   167   168    1
    13   173   174    2
    14   126   127    1
    15   127   128    1
    16   127   130    1
    17   181   183   ar
    18   181   178   ar
    19   183   184   ar
    20   109   110    1
    21    65    66    1
    22     9    10    1
    23   131   130    1
    24   131   132   ar
    25   175   176    1
    26   110   113    1
    27   110   111    1
    28   134   132   ar
    29   170   168   ar
    30    71    73   ar
    31    71    70   ar
    32   168   169   ar
    33   128   129    2
    34    16    15   ar
    35   112   111    2
    36   115   114    2
    37    69    66    1
    38    69    70    1
    39   206   205    2
    40   113   114    1
    41   178   176   ar
    42   178   180   ar
    43   184   182   ar
    44    66    67    1
    45   185   186    1
    46    73    74   ar
    47   111   117   am
    48   176   177   ar
    49    70    72   ar
    50    10    13    1
    51    10    11    1
    52     1     2    1
    53    13    14    1
    54   114   116   am
    55     3     4    2
    56     3     2    1
    57    15    17   ar
    58    15    14    1
    59   186   187    1
    60   186   189    1
    61   205   204    1
    62   187   188    2
    63   180   182   ar
    64   180   179   ar
    65     2     5    1
    66    74    72   ar
    67   177   179   ar
    68   147   146    1
    69   117   118    1
    70    67    68    2
    71    11    12    2
    72   207   204    1
    73   207   208    1
    74   146   145   ar
    75   146   144   ar
    76   204   203    1
    77   145   143   ar
    78     5     6    1
    79   189   190    1
    80   209   208   ar
    81   209   211   ar
    82   136   137    1
    83   193   194    1
    84   118   121    1
    85   118   119    1
    86   122   121    1
    87   122   123    1
    88   144   142   ar
    89   208   210   ar
    90   191   190    2
    91   143   141   ar
    92   125   123   ar
    93   211   213   ar
    94    64    63    2
    95   196   195    2
    96   190   192   am
    97   142   141   ar
    98   137   140    1
    99   137   138    1
   100   195   194    1
   101   141   140    1
   102    63    62    1
   103     6     7    2
   104     6     8   am
   105   123   124   ar
   106   119   120    2
   107   194   197    1
   108    42    43    1
   109   210   212   ar
   110   213   212   ar
   111   138   139    2
   112    50    49    2
   113    86    85    1
   114    57    59   ar
   115    57    54   ar
   116   197   198    1
   117    62    61    1
   118    59    60   ar
   119    18    19    1
   120    84    85   ar
   121    84    82   ar
   122    49    61   am
   123    49    48    1
   124    47    48    1
   125    47    44   am
   126    51    48    1
   127    51    52    1
   128    85    83   ar
   129    43    46    1
   130    43    44    1
   131    22    19    1
   132    19    20    1
   133    82    80   ar
   134    54    52   ar
   135    54    56   ar
   136    60    58   ar
   137    41    40    2
   138    44    45    2
   139    52    53   ar
   140    75    76    1
   141   198   200   ar
   142   198   199   ar
   143    83    81   ar
   144   200   202   ar
   145    80    81   ar
   146    80    79    1
   147    56    58   ar
   148    56    55   ar
   149    40    39    1
   150    20    23   am
   151    20    21    2
   152    53    55   ar
   153   199   201   ar
   154    76    79    1
   155    76    77    1
   156    23    24    1
   157    98    97    1
   158   202   201   ar
   159    99    97    1
   160   160   158   ar
   161   160   161   ar
   162    97    94    1
   163    39    38    1
   164    29    27    1
   165   148   149    1
   166   158   155   ar
   167    26    25    2
   168    77    78    2
   169    24    27    1
   170    24    25    1
   171   161   159   ar
   172   103   102    2
   173   149   150    1
   174   149   152    1
   175    38    32   am
   176    27    28    1
   177    25    30   am
   178   155   153   ar
   179   155   157   ar
   180    94    95    1
   181    94    93    1
   182   150   151    2
   183   152   153    1
   184    96    95    2
   185   102   101    1
   186    32    33    2
   187    32    31    1
   188    95   100   am
   189   159   157   ar
   190    93    89   am
   191    30    31    1
   192   153   154   ar
   193   157   156   ar
   194   100   101    1
   195    92    91    1
   196    31    34    1
   197   101   104    1
   198    87    88    1
   199    34    35    1
   200    89    90    2
   201    89    88    1
   202   154   156   ar
   203   104   105    1
   204    91    88    1
   205   105   106    1
   206    35    36    2
   207    35    37   am
   208   108   106   am
   209   106   107    2
