@<TRIPOS>MOLECULE
tmp/2jetB00.pdb
 180 180 0 0 0
SMALL
GASTEIGER

@<TRIPOS>ATOM
      1  N         12.3210   -8.8940    3.4610 N.3     2  GLU2       -0.1245
      2  CA        12.0980   -9.0370    2.0210 C.3     2  GLU2        0.1567
      3  C         11.0140   -8.0820    1.5260 C.2     2  GLU2        0.2260
      4  O         10.3020   -7.4710    2.3240 O.2     2  GLU2       -0.2867
      5  CB        11.7100  -10.4800    1.6810 C.3     2  GLU2        0.0388
      6  CG        10.4510  -10.9790    2.3920 C.3     2  GLU2        0.1160
      7  CD        10.0300  -12.3710    1.9530 C.2     2  GLU2        0.3649
      8  OE1       10.7180  -12.9770    1.1030 O.co2   2  GLU2       -0.2457
      9  OE2        9.0000  -12.8630    2.4620 O.co2   2  GLU2       -0.2457
     10  N          7.5180   -7.0090    0.1450 N.3     4  ALA4       -0.1231
     11  CA         6.1370   -7.4800    0.1850 C.3     4  ALA4        0.1694
     12  C          5.5370   -7.4250   -1.2160 C.2     4  ALA4        0.2592
     13  O          6.0460   -6.7210   -2.0890 O.2     4  ALA4       -0.2718
     14  CB         5.3150   -6.6350    1.1450 C.3     4  ALA4        0.0304
     15  N          4.4620   -8.1780   -1.4300 N.am    5  ILE5       -0.1966
     16  CA         3.7360   -8.1360   -2.6980 C.3     5  ILE5        0.1712
     17  C          2.9260   -6.8340   -2.7570 C.2     5  ILE5        0.2458
     18  O          2.3510   -6.4260   -1.7510 O.2     5  ILE5       -0.2730
     19  CB         2.8070   -9.3630   -2.8610 C.3     5  ILE5        0.0289
     20  CG1        3.6400  -10.6330   -3.0590 C.3     5  ILE5        0.0022
     21  CG2        1.8620   -9.1790   -4.0410 C.3     5  ILE5        0.0023
     22  CD1        2.8210  -11.9050   -3.0640 C.3     5  ILE5        0.0001
     23  N          2.9060   -6.1580   -3.9230 N.am    6  PRO6       -0.2716
     24  CA         2.1310   -4.9180   -4.0590 C.3     6  PRO6        0.1536
     25  C          0.6730   -5.0450   -3.5990 C.2     6  PRO6        0.2599
     26  O         -0.0590   -5.9080   -4.0860 O.2     6  PRO6       -0.2715
     27  CB         2.1960   -4.6290   -5.5620 C.3     6  PRO6        0.0310
     28  CG         3.4510   -5.2650   -6.0130 C.3     6  PRO6        0.0237
     29  CD         3.6270   -6.4890   -5.1670 C.3     6  PRO6        0.0939
     30  N          0.2720   -4.1900   -2.6590 N.am    7  GLY7       -0.1941
     31  CA        -1.0900   -4.1920   -2.1250 C.3     7  GLY7        0.2014
     32  C         -1.3920   -5.3440   -1.1810 C.2     7  GLY7        0.2640
     33  O         -2.5580   -5.6560   -0.9350 O.2     7  GLY7       -0.2714
     34  N         -0.3460   -5.9610   -0.6340 N.am    8  SER8       -0.1935
     35  CA        -0.4880   -7.1630    0.1910 C.3     8  SER8        0.2055
     36  C         -0.8880   -6.8660    1.6340 C.2     8  SER8        0.2643
     37  O         -1.5600   -7.6780    2.2720 O.2     8  SER8       -0.2714
     38  CB         0.8140   -7.9630    0.1870 C.3     8  SER8        0.2130
     39  OG         0.7460   -9.0450    1.0880 O.3     8  SER8       -0.2179
     40  N         -0.4480   -5.7190    2.1470 N.am    9  TRP9       -0.1960
     41  CA        -0.8020   -5.2680    3.4900 C.3     9  TRP9        0.1756
     42  C         -1.6110   -3.9750    3.3580 C.2     9  TRP9        0.2462
     43  O         -1.0970   -2.8860    3.6140 O.2     9  TRP9       -0.2730
     44  CB         0.4620   -5.0450    4.3260 C.3     9  TRP9        0.0590
     45  CG         1.4110   -6.2040    4.2870 C.ar    9  TRP9        0.0006
     46  CD1        2.5110   -6.3320    3.4910 C.ar    9  TRP9        0.0946
     47  CD2        1.3400   -7.4020    5.0700 C.ar    9  TRP9        0.0152
     48  NE1        3.1340   -7.5320    3.7320 N.ar    9  TRP9       -0.2442
     49  CE2        2.4360   -8.2090    4.6960 C.ar    9  TRP9        0.0810
     50  CE3        0.4590   -7.8710    6.0520 C.ar    9  TRP9        0.0012
     51  CZ2        2.6750   -9.4610    5.2710 C.ar    9  TRP9        0.0191
     52  CZ3        0.6970   -9.1160    6.6230 C.ar    9  TRP9        0.0001
     53  CH2        1.7970   -9.8950    6.2300 C.ar    9  TRP9        0.0015
     54  N         -2.8910   -4.0950    2.9610 N.am   10  PRO10      -0.2716
     55  CA        -3.6930   -2.9450    2.5390 C.3    10  PRO10       0.1536
     56  C         -4.0540   -1.9590    3.6560 C.2    10  PRO10       0.2598
     57  O         -4.5460   -0.8680    3.3670 O.2    10  PRO10      -0.2715
     58  CB        -4.9540   -3.6010    1.9700 C.3    10  PRO10       0.0310
     59  CG        -5.0740   -4.8660    2.7240 C.3    10  PRO10       0.0237
     60  CD        -3.6730   -5.3440    2.9080 C.3    10  PRO10       0.0939
     61  N         -3.8190   -2.3440    4.9080 N.am   11  TRP11      -0.1974
     62  CA        -4.0070   -1.4450    6.0500 C.3    11  TRP11       0.1640
     63  C         -2.7590   -0.6130    6.3530 C.2    11  TRP11       0.2290
     64  O         -2.8440    0.3880    7.0660 O.2    11  TRP11      -0.2864
     65  CB        -4.4290   -2.2260    7.3010 C.3    11  TRP11       0.0576
     66  CG        -3.5500   -3.3960    7.6260 C.ar   11  TRP11       0.0006
     67  CD1       -2.3500   -3.3700    8.2730 C.ar   11  TRP11       0.0946
     68  CD2       -3.8120   -4.7700    7.3210 C.ar   11  TRP11       0.0152
     69  NE1       -1.8460   -4.6430    8.3890 N.ar   11  TRP11      -0.2442
     70  CE2       -2.7250   -5.5220    7.8120 C.ar   11  TRP11       0.0810
     71  CE3       -4.8620   -5.4390    6.6800 C.ar   11  TRP11       0.0012
     72  CZ2       -2.6560   -6.9110    7.6830 C.ar   11  TRP11       0.0191
     73  CZ3       -4.7930   -6.8190    6.5510 C.ar   11  TRP11       0.0001
     74  CH2       -3.6970   -7.5390    7.0500 C.ar   11  TRP11       0.0015
     75  N         -7.6320    0.7290   10.7890 N.3    29  ILE29      -0.1245
     76  CA        -8.5760   -0.1230   11.5190 C.3    29  ILE29       0.1561
     77  C        -10.0070    0.0750   11.0070 C.2    29  ILE29       0.2260
     78  O        -10.8980   -0.7160   11.3170 O.2    29  ILE29      -0.2867
     79  CB        -8.5170    0.1160   13.0510 C.3    29  ILE29       0.0252
     80  CG1       -8.8090    1.5790   13.4070 C.3    29  ILE29       0.0019
     81  CG2       -7.1550   -0.2860   13.5950 C.3    29  ILE29       0.0019
     82  CD1       -9.0230    1.8080   14.8880 C.3    29  ILE29       0.0001
     83  N        -12.4500    2.7990    7.8430 N.3    31  GLU31      -0.1245
     84  CA       -12.4290    3.7500    6.7300 C.3    31  GLU31       0.1567
     85  C        -11.9710    5.1470    7.1540 C.2    31  GLU31       0.2260
     86  O        -11.4060    5.8840    6.3460 O.2    31  GLU31      -0.2867
     87  CB       -13.8110    3.8390    6.0790 C.3    31  GLU31       0.0388
     88  CG       -14.8450    4.5550    6.6890 C.3    31  GLU31       0.1160
     89  CD       -16.1560    4.5360    5.9180 C.2    31  GLU31       0.3649
     90  OE1      -16.2830    3.7160    4.9820 O.co2  31  GLU31      -0.2457
     91  OE2      -17.0590    5.3380    6.2470 O.co2  31  GLU31      -0.2457
     92  N        -11.9160    2.3180    0.2360 N.3    93  PHE93      -0.1227
     93  CA       -11.5050    0.9190    0.3450 C.3    93  PHE93       0.1736
     94  C        -11.6080    0.2090   -1.0040 C.2    93  PHE93       0.2596
     95  O        -12.6050    0.3470   -1.7150 O.2    93  PHE93      -0.2718
     96  CB       -12.3510    0.1890    1.4000 C.3    93  PHE93       0.0547
     97  CG       -11.8320    0.3210    2.8150 C.ar   93  PHE93      -0.0202
     98  CD1      -11.0240    1.3910    3.2000 C.ar   93  PHE93      -0.0042
     99  CD2      -12.1770   -0.6250    3.7720 C.ar   93  PHE93      -0.0042
    100  CE1      -10.5580    1.4970    4.5020 C.ar   93  PHE93      -0.0003
    101  CE2      -11.7170   -0.5200    5.0780 C.ar   93  PHE93      -0.0003
    102  CZ       -10.9080    0.5420    5.4430 C.ar   93  PHE93      -0.0000
    103  N        -10.5650   -0.5450   -1.3450 N.am   94  SER94      -0.1938
    104  CA       -10.4780   -1.2310   -2.6320 C.3    94  SER94       0.2055
    105  C         -9.5760   -2.4650   -2.5050 C.2    94  SER94       0.2643
    106  O         -9.4440   -3.0250   -1.4140 O.2    94  SER94      -0.2714
    107  CB        -9.9560   -0.2640   -3.7020 C.3    94  SER94       0.2130
    108  OG        -8.5690   -0.0160   -3.5410 O.3    94  SER94      -0.2179
    109  N         -8.9710   -2.8920   -3.6130 N.am   95  GLU95      -0.1963
    110  CA        -8.0630   -4.0390   -3.6060 C.3    95  GLU95       0.1733
    111  C         -6.8240   -3.7950   -2.7430 C.2    95  GLU95       0.2617
    112  O         -6.3730   -4.6930   -2.0300 O.2    95  GLU95      -0.2715
    113  CB        -7.6250   -4.3920   -5.0310 C.3    95  GLU95       0.0429
    114  CG        -8.7410   -4.9260   -5.9190 C.3    95  GLU95       0.1163
    115  CD        -8.2520   -5.3570   -7.2940 C.2    95  GLU95       0.3649
    116  OE1       -7.1100   -5.0080   -7.6670 O.co2  95  GLU95      -0.2457
    117  OE2       -9.0130   -6.0460   -8.0040 O.co2  95  GLU95      -0.2457
    118  N         -6.2850   -2.5780   -2.8130 N.am   96  THR96      -0.1951
    119  CA        -5.0410   -2.2260   -2.1240 C.3    96  THR96       0.1897
    120  C         -5.2500   -1.4470   -0.8190 C.2    96  THR96       0.2313
    121  O         -4.2830   -1.1680   -0.1100 O.2    96  THR96      -0.2863
    122  CB        -4.1190   -1.4010   -3.0500 C.3    96  THR96       0.1794
    123  OG1       -4.8300   -0.2610   -3.5500 O.3    96  THR96      -0.2208
    124  CG2       -3.6420   -2.2490   -4.2210 C.3    96  THR96       0.0378
    125  N         -7.7080   -1.4570    2.7110 N.3    98  SER98      -0.1202
    126  CA        -8.7220   -2.0540    3.5850 C.3    98  SER98       0.2020
    127  C         -8.2040   -2.1010    5.0240 C.2    98  SER98       0.2619
    128  O         -7.0440   -1.7790    5.2760 O.2    98  SER98      -0.2717
    129  CB        -9.1170   -3.4550    3.1020 C.3    98  SER98       0.2103
    130  OG        -8.0180   -4.3440    3.1290 O.3    98  SER98      -0.2182
    131  N         -9.0600   -2.5070    5.9600 N.am   99  ALA99      -0.1965
    132  CA        -8.7500   -2.4120    7.3910 C.3    99  ALA99       0.1728
    133  C         -8.1420   -3.6850    7.9820 C.2    99  ALA99       0.2616
    134  O         -8.1640   -4.7490    7.3590 O.2    99  ALA99      -0.2715
    135  CB       -10.0050   -2.0290    8.1680 C.3    99  ALA99       0.0334
    136  N         -7.5940   -3.5470    9.1900 N.am  100  VAL100     -0.1963
    137  CA        -7.1170   -4.6760    9.9950 C.3   100  VAL100      0.1727
    138  C         -8.0120   -4.8170   11.2250 C.2   100  VAL100      0.2616
    139  O         -8.5300   -3.8200   11.7340 O.2   100  VAL100     -0.2715
    140  CB        -5.6490   -4.4790   10.4490 C.3   100  VAL100      0.0290
    141  CG1       -5.5280   -3.3320   11.4490 C.3   100  VAL100      0.0023
    142  CG2       -5.0920   -5.7690   11.0410 C.3   100  VAL100      0.0023
    143  N         -8.1960   -6.0470   11.7010 N.am  101  CYS101     -0.1968
    144  CA        -9.0080   -6.2820   12.8970 C.3   101  CYS101      0.1712
    145  C         -8.2180   -5.9160   14.1490 C.2   101  CYS101      0.2296
    146  O         -6.9920   -6.0360   14.1790 O.2   101  CYS101     -0.2864
    147  CB        -9.4680   -7.7400   13.0010 C.3   101  CYS101      0.0983
    148  SG        -9.8500   -8.5560   11.4440 S.3   101  CYS101     -0.0798
    149  N          4.1080  -16.9870   15.4900 N.3   114  VAL114     -0.1231
    150  CA         4.7230  -16.2610   14.3790 C.3   114  VAL114      0.1692
    151  C          3.8130  -15.1390   13.8820 C.2   114  VAL114      0.2592
    152  O          2.7580  -15.3960   13.2990 O.2   114  VAL114     -0.2718
    153  CB         5.0550  -17.2070   13.2010 C.3   114  VAL114      0.0266
    154  CG1        5.6960  -16.4340   12.0550 C.3   114  VAL114      0.0020
    155  CG2        5.9700  -18.3320   13.6620 C.3   114  VAL114      0.0020
    156  N          4.2330  -13.8980   14.1210 N.am  115  CYS115     -0.1956
    157  CA         3.5080  -12.7130   13.6660 C.3   115  CYS115      0.1843
    158  C          4.2840  -12.0230   12.5460 C.2   115  CYS115      0.2625
    159  O          5.4090  -12.4140   12.2330 O.2   115  CYS115     -0.2714
    160  CB         3.2960  -11.7510   14.8350 C.3   115  CYS115      0.0997
    161  SG         2.3850  -12.4790   16.2150 S.3   115  CYS115     -0.0797
    162  N          3.6770  -11.0010   11.9470 N.am  116  ALA116     -0.1963
    163  CA         4.2890  -10.2710   10.8350 C.3   116  ALA116      0.1728
    164  C          4.3920   -8.7790   11.1390 C.2   116  ALA116      0.2617
    165  O          3.4930   -8.1980   11.7500 O.2   116  ALA116     -0.2715
    166  CB         3.4880  -10.4890    9.5630 C.3   116  ALA116      0.0334
    167  N          5.4970   -8.1720   10.7100 N.am  117  THR117     -0.1937
    168  CA         5.6930   -6.7280   10.8210 C.3   117  THR117      0.2028
    169  C          6.0910   -6.1620    9.4580 C.2   117  THR117      0.2642
    170  O          6.8450   -6.7910    8.7140 O.2   117  THR117     -0.2714
    171  CB         6.7600   -6.3730   11.8820 C.3   117  THR117      0.1808
    172  OG1        6.8300   -4.9510   12.0390 O.3   117  THR117     -0.2208
    173  CG2        8.1310   -6.9140   11.4890 C.3   117  THR117      0.0379
    174  N          5.5700   -4.9800    9.1360 N.am  118  THR118     -0.1950
    175  CA         5.7770   -4.3710    7.8210 C.3   118  THR118      0.1897
    176  C          6.0250   -2.8690    7.9210 C.2   118  THR118      0.2313
    177  O          5.6610   -2.2330    8.9110 O.2   118  THR118     -0.2863
    178  CB         4.5560   -4.6000    6.9060 C.3   118  THR118      0.1794
    179  OG1        3.3770   -4.0920    7.5400 O.3   118  THR118     -0.2208
    180  CG2        4.3710   -6.0830    6.6130 C.3   118  THR118      0.0378
@<TRIPOS>BOND
     1   117   115   ar
     2   116   115   ar
     3   115   114    1
     4    28    27    1
     5    28    29    1
     6   114   113    1
     7    27    24    1
     8    29    23    1
     9   113   110    1
    10   124   122    1
    11    26    25    2
    12    24    23    1
    13    24    25    1
    14    21    19    1
    15    23    17   am
    16   107   108    1
    17   107   104    1
    18   109   110    1
    19   109   105   am
    20   110   111    1
    21    25    30   am
    22   123   122    1
    23    22    20    1
    24    20    19    1
    25   122   119    1
    26    19    16    1
    27   118   111   am
    28   118   119    1
    29    17    16    1
    30    17    18    2
    31   111   112    2
    32    16    15    1
    33    30    31    1
    34   104   105    1
    35   104   103    1
    36   105   106    2
    37    31    32    1
    38   119   120    1
    39    13    12    2
    40    95    94    2
    41    15    12   am
    42   103    94   am
    43    12    11    1
    44    32    33    2
    45    32    34   am
    46    94    93    1
    47   120   121    2
    48    34    35    1
    49    10    11    1
    50    11    14    1
    51    38    35    1
    52    38    39    1
    53    35    36    1
    54    92    93    1
    55    93    96    1
    56     8     7   ar
    57    96    97    1
    58     3     2    1
    59     3     4    2
    60    36    40   am
    61    36    37    2
    62     5     2    1
    63     5     6    1
    64     7     6    1
    65     7     9   ar
    66    58    55    1
    67    58    59    1
    68     2     1    1
    69    40    41    1
    70    55    54    1
    71    55    56    1
    72   125   126    1
    73    59    60    1
    74    97    98   ar
    75    97    99   ar
    76    60    54    1
    77    54    42   am
    78   129   130    1
    79   129   126    1
    80    98   100   ar
    81    42    41    1
    82    42    43    2
    83    57    56    2
    84    41    44    1
    85    46    48   ar
    86    46    45   ar
    87   126   127    1
    88    56    61   am
    89    48    49   ar
    90    99   101   ar
    91    45    44    1
    92    45    47   ar
    93   100   102   ar
    94    49    47   ar
    95    49    51   ar
    96    61    62    1
    97    90    89   ar
    98   127   128    2
    99   127   131   am
   100    47    50   ar
   101   101   102   ar
   102    51    53   ar
   103    89    91   ar
   104    89    88    1
   105   131   132    1
   106    62    63    1
   107    62    65    1
   108    50    52   ar
   109    87    88    1
   110    87    84    1
   111    53    52   ar
   112    86    85    2
   113    63    64    2
   114    73    71   ar
   115    73    74   ar
   116   180   178    1
   117    71    68   ar
   118    84    85    1
   119    84    83    1
   120   178   179    1
   121   178   175    1
   122    74    72   ar
   123    65    66    1
   124    68    66   ar
   125    68    70   ar
   126   134   133    2
   127   132   133    1
   128   132   135    1
   129    66    67   ar
   130    72    70   ar
   131    70    69   ar
   132   175   176    1
   133   175   174    1
   134   176   177    2
   135   133   136   am
   136    67    69   ar
   137   170   169    2
   138   174   169   am
   139   136   137    1
   140   169   168    1
   141   166   163    1
   142   137   140    1
   143   137   138    1
   144   140   142    1
   145   140   141    1
   146   167   168    1
   147   167   164   am
   148    75    76    1
   149   168   171    1
   150   163   164    1
   151   163   162    1
   152    77    78    2
   153    77    76    1
   154   164   165    2
   155   138   143   am
   156   138   139    2
   157   148   147    1
   158   173   171    1
   159    76    79    1
   160   143   144    1
   161   171   172    1
   162   162   158   am
   163   154   153    1
   164   159   158    2
   165   158   157    1
   166   144   147    1
   167   144   145    1
   168    79    80    1
   169    79    81    1
   170   153   155    1
   171   153   150    1
   172   152   151    2
   173    80    82    1
   174   157   156    1
   175   157   160    1
   176   151   156   am
   177   151   150    1
   178   145   146    2
   179   150   149    1
   180   160   161    1
