@<TRIPOS>MOLECULE
tmp/2jewA00.pdb
 149 139 0 0 0
SMALL
GASTEIGER

@<TRIPOS>ATOM
      1  N         74.2850   21.6810    7.4760 N.3    64  HIS64      -0.1241
      2  CA        75.2880   22.3940    8.2370 C.3    64  HIS64       0.1621
      3  C         74.6460   23.5870    8.8950 C.2    64  HIS64       0.2264
      4  O         74.0760   24.4610    8.2660 O.2    64  HIS64      -0.2867
      5  CB        76.4610   22.7840    7.3450 C.3    64  HIS64       0.0745
      6  CG        77.2920   21.5930    7.0000 C.ar   64  HIS64       0.0817
      7  ND1       77.9140   21.4020    5.8170 N.ar   64  HIS64      -0.2268
      8  CD2       77.6340   20.4710    7.6630 C.ar   64  HIS64       0.1154
      9  CE1       78.5930   20.3040    5.6810 C.ar   64  HIS64       0.1986
     10  NE2       78.4130   19.7220    6.8230 N.ar   64  HIS64      -0.2212
     11  N         74.8990   27.4150    7.9940 N.3    67  GLU67      -0.1245
     12  CA        74.5860   27.8210    6.6380 C.3    67  GLU67       0.1567
     13  C         73.1590   28.2410    6.4600 C.2    67  GLU67       0.2260
     14  O         72.3950   27.6570    5.7080 O.2    67  GLU67      -0.2867
     15  CB        74.9280   26.6520    5.7040 C.3    67  GLU67       0.0388
     16  CG        76.4600   26.5780    5.7140 C.3    67  GLU67       0.1160
     17  CD        76.9530   25.3070    5.1770 C.2    67  GLU67       0.3649
     18  OE1       76.2120   24.6640    4.3740 O.co2  67  GLU67      -0.2457
     19  OE2       78.0630   24.8180    5.5070 O.co2  67  GLU67      -0.2457
     20  N         78.5330   23.9610   13.1690 N.3   122  ARG122     -0.1245
     21  CA        78.3250   23.2950   11.8980 C.3   122  ARG122      0.1563
     22  C         77.7160   21.9170   12.0620 C.2   122  ARG122      0.2260
     23  O         76.9130   21.5040   11.2340 O.2   122  ARG122     -0.2867
     24  CB        79.6640   23.0880   11.1880 C.3   122  ARG122      0.0307
     25  CG        79.6940   22.1230   10.0190 C.3   122  ARG122      0.0489
     26  CD        81.1210   21.8790    9.6140 C.3   122  ARG122      0.2205
     27  NE        81.4420   20.9210    8.5930 N.pl3 122  ARG122     -0.0865
     28  CZ        81.4320   21.1430    7.2960 C.cat 122  ARG122      0.5346
     29  NH1       81.7720   20.1780    6.4610 N.pl3 122  ARG122      0.1354
     30  NH2       81.0710   22.3180    6.7910 N.pl3 122  ARG122      0.1354
     31  N         77.4870   15.6720    6.7600 N.3   139  ASN139     -0.1225
     32  CA        77.9410   15.4990    5.4030 C.3   139  ASN139      0.1785
     33  C         79.2720   14.7640    5.3250 C.2   139  ASN139      0.2597
     34  O         79.9220   14.7660    4.2750 O.2   139  ASN139     -0.2718
     35  CB        77.9850   16.8100    4.6480 C.3   139  ASN139      0.1169
     36  CG        77.5530   16.6060    3.2140 C.2   139  ASN139      0.2627
     37  OD1       76.8420   15.6340    2.9040 O.2   139  ASN139     -0.2716
     38  ND2       77.9700   17.5230    2.3610 N.am  139  ASN139     -0.0877
     39  N         79.6920   14.1140    6.3810 N.am  140  ARG140     -0.1979
     40  CA        80.7940   13.1650    6.3630 C.3   140  ARG140      0.1597
     41  C         80.2960   11.8550    6.9720 C.2   140  ARG140      0.2287
     42  O         81.0840   10.9640    7.3130 O.2   140  ARG140     -0.2864
     43  CB        82.0010   13.6670    7.1450 C.3   140  ARG140      0.0334
     44  CG        82.5600   15.0040    6.6900 C.3   140  ARG140      0.0492
     45  CD        83.1510   14.9590    5.3070 C.3   140  ARG140      0.2205
     46  NE        83.7810   16.2360    4.9500 N.pl3 140  ARG140     -0.0865
     47  CZ        83.0880   17.2530    4.4700 C.cat 140  ARG140      0.5346
     48  NH1       81.7790   17.1620    4.2840 N.pl3 140  ARG140      0.1354
     49  NH2       83.6730   18.4130    4.1610 N.pl3 140  ARG140      0.1354
     50  N         73.5430   23.9940    0.5330 N.3   192  HIS192     -0.1226
     51  CA        74.5500   24.4280    1.4740 C.3   192  HIS192      0.1752
     52  C         74.9720   25.8600    1.1700 C.2   192  HIS192      0.2593
     53  O         74.4580   26.4610    0.2380 O.2   192  HIS192     -0.2718
     54  CB        75.7910   23.5450    1.3400 C.3   192  HIS192      0.0759
     55  CG        75.6230   22.0990    1.6260 C.ar  192  HIS192      0.0818
     56  ND1       76.0280   21.5170    2.7910 N.ar  192  HIS192     -0.2268
     57  CD2       75.0750   21.0690    0.9270 C.ar  192  HIS192      0.1154
     58  CE1       75.7590   20.2250    2.8310 C.ar  192  HIS192      0.1986
     59  NE2       75.1930   19.9550    1.6890 N.ar  192  HIS192     -0.2212
     60  N         75.9270   26.3220    1.9670 N.am  193  SER193     -0.1991
     61  CA        76.4930   27.6020    1.6320 C.3   193  SER193      0.1753
     62  C         78.0030   27.5470    1.9290 C.3   193  SER193      0.2486
     63  O         78.2360   26.8450    2.9350 O.3   193  SER193     -0.2016
     64  CB        75.7850   28.8400    2.0970 C.3   193  SER193      0.2077
     65  OG        75.9260   29.0070    3.4830 O.3   193  SER193     -0.2184
     66  N         78.7650   28.5990    2.0040 N.3   194  TYR194     -0.1794
     67  CA        78.9850   29.4480    0.8920 C.3   194  TYR194      0.1572
     68  C         79.8580   28.9680   -0.2210 C.2   194  TYR194      0.2580
     69  O         80.2080   27.8070   -0.2730 O.2   194  TYR194     -0.2718
     70  CB        79.3160   30.8570    1.3460 C.3   194  TYR194      0.0532
     71  CG        80.6620   30.9170    2.0060 C.ar  194  TYR194     -0.0201
     72  CD1       81.7750   31.3290    1.2870 C.ar  194  TYR194     -0.0009
     73  CD2       80.8250   30.5780    3.3240 C.ar  194  TYR194     -0.0009
     74  CE1       83.0220   31.4000    1.8690 C.ar  194  TYR194      0.0417
     75  CE2       82.0670   30.6510    3.9150 C.ar  194  TYR194      0.0417
     76  CZ        83.1520   31.0560    3.1830 C.ar  194  TYR194      0.1957
     77  OH        84.3940   31.1280    3.7700 O.3   194  TYR194     -0.2866
     78  N         80.1270   29.8670   -1.1550 N.am  195  SER195     -0.1952
     79  CA        81.1370   29.7520   -2.1790 C.3   195  SER195      0.1924
     80  C         80.5930   29.6660   -3.5780 C.2   195  SER195      0.2314
     81  O         81.4240   29.7510   -4.4840 O.2   195  SER195     -0.2863
     82  CB        82.2070   28.7030   -1.9140 C.3   195  SER195      0.2116
     83  OG        81.7980   27.4150   -2.2810 O.3   195  SER195     -0.2180
     84  N         78.0850   21.3330   -7.2660 N.3   199  LEU199     -0.1245
     85  CA        78.9430   20.1800   -7.2710 C.3   199  LEU199      0.1561
     86  C         78.1310   18.9310   -7.5720 C.2   199  LEU199      0.2260
     87  O         76.9600   18.8150   -7.2160 O.2   199  LEU199     -0.2867
     88  CB        79.6280   19.9650   -5.9270 C.3   199  LEU199      0.0270
     89  CG        80.5440   21.0970   -5.4700 C.3   199  LEU199      0.0019
     90  CD1       81.1230   20.7680   -4.1160 C.3   199  LEU199      0.0001
     91  CD2       81.6450   21.3240   -6.4880 C.3   199  LEU199      0.0001
     92  N         83.1640   13.1120   -4.4890 N.3   203  SER203     -0.1217
     93  CA        84.0130   13.8190   -3.5590 C.3   203  SER203      0.1889
     94  C         84.6930   12.8740   -2.5880 C.2   203  SER203      0.2288
     95  O         85.5970   13.3200   -1.8820 O.2   203  SER203     -0.2866
     96  CB        83.2680   14.9220   -2.8130 C.3   203  SER203      0.2089
     97  OG        82.7670   15.8950   -3.7000 O.3   203  SER203     -0.2183
     98  N         86.8760   20.3160   -5.9130 N.3   243  ILE243     -0.1245
     99  CA        87.1420   20.5840   -4.5180 C.3   243  ILE243      0.1561
    100  C         88.1030   19.5540   -3.9450 C.2   243  ILE243      0.2260
    101  O         88.3070   18.5180   -4.5500 O.2   243  ILE243     -0.2867
    102  CB        85.8700   20.5680   -3.6580 C.3   243  ILE243      0.0252
    103  CG1       85.0480   19.2880   -3.8300 C.3   243  ILE243      0.0019
    104  CG2       85.0040   21.7890   -3.9320 C.3   243  ILE243      0.0019
    105  CD1       84.0640   19.0260   -2.7150 C.3   243  ILE243      0.0001
    106  N         86.0930   15.1460    0.2200 N.3   246  ALA246     -0.1245
    107  CA        85.1110   15.3360    1.2690 C.3   246  ALA246      0.1562
    108  C         84.2470   14.0760    1.3770 C.2   246  ALA246      0.2260
    109  O         83.0610   14.0590    1.0870 O.2   246  ALA246     -0.2867
    110  CB        84.2690   16.5660    1.0110 C.3   246  ALA246      0.0290
    111  N         79.7630   12.1100    1.9340 N.3   249  GLY249     -0.1225
    112  CA        78.7060   13.0320    1.5850 C.3   249  GLY249      0.1811
    113  C         77.4310   12.3320    1.1660 C.2   249  GLY249      0.2280
    114  O         77.4580   11.2200    0.6520 O.2   249  GLY249     -0.2866
    115  N         75.4200   13.4480   -1.2030 N.3   251  ASP251     -0.1239
    116  CA        75.2850   13.5090   -2.6420 C.3   251  ASP251      0.1674
    117  C         75.9120   12.2760   -3.2590 C.2   251  ASP251      0.2266
    118  O         75.3150   11.6310   -4.1320 O.2   251  ASP251     -0.2867
    119  CB        75.8600   14.7980   -3.1990 C.3   251  ASP251      0.1410
    120  CG        77.2750   15.1350   -2.8240 C.2   251  ASP251      0.3668
    121  OD1       77.9030   14.4370   -1.9900 O.co2 251  ASP251     -0.2456
    122  OD2       77.7970   16.1470   -3.3560 O.co2 251  ASP251     -0.2456
    123  N         75.0390   19.0650   -5.1590 N.3   264  THR264     -0.1218
    124  CA        75.2010   19.9240   -4.0030 C.3   264  THR264      0.1862
    125  C         75.2360   21.3700   -4.4950 C.2   264  THR264      0.2287
    126  O         76.0240   21.7140   -5.3720 O.2   264  THR264     -0.2866
    127  CB        76.4770   19.6230   -3.2130 C.3   264  THR264      0.1770
    128  OG1       76.4250   18.3050   -2.6820 O.3   264  THR264     -0.2211
    129  CG2       76.6660   20.6040   -2.0760 C.3   264  THR264      0.0375
    130  N         76.0260   25.1980   -3.3260 N.3   266  GLU266     -0.1245
    131  CA        76.6350   26.0170   -2.2880 C.3   266  GLU266      0.1567
    132  C         76.3140   27.4570   -2.6460 C.2   266  GLU266      0.2260
    133  O         76.7600   27.9230   -3.6900 O.2   266  GLU266     -0.2867
    134  CB        78.1300   25.7730   -2.1910 C.3   266  GLU266      0.0388
    135  CG        78.4460   24.3220   -1.9100 C.3   266  GLU266      0.1160
    136  CD        79.9090   24.0190   -1.7100 C.2   266  GLU266      0.3649
    137  OE1       80.7260   24.9350   -1.5640 O.co2 266  GLU266     -0.2457
    138  OE2       80.2200   22.8050   -1.6820 O.co2 266  GLU266     -0.2457
    139  N         79.2850   32.6530    5.9680 N.3   275  PHE275     -0.1241
    140  CA        78.0960   32.0310    6.5300 C.3   275  PHE275      0.1605
    141  C         77.1170   33.0390    7.0770 C.2   275  PHE275      0.2264
    142  O         75.9240   32.7680    7.1980 O.2   275  PHE275     -0.2867
    143  CB        78.4940   31.0340    7.6230 C.3   275  PHE275      0.0534
    144  CG        79.3860   29.9340    7.1350 C.ar  275  PHE275     -0.0203
    145  CD1       78.9640   29.0660    6.1590 C.ar  275  PHE275     -0.0042
    146  CD2       80.6580   29.7890    7.6740 C.ar  275  PHE275     -0.0042
    147  CE1       79.7980   28.0650    5.7140 C.ar  275  PHE275     -0.0003
    148  CE2       81.4920   28.7830    7.2330 C.ar  275  PHE275     -0.0003
    149  CZ        81.0620   27.9300    6.2390 C.ar  275  PHE275     -0.0000
@<TRIPOS>BOND
     1    86    85    1
     2    86    87    2
     3    85    84    1
     4    85    88    1
     5    91    89    1
     6    88    89    1
     7    98    99    1
     8    89    90    1
     9   126   125    2
    10   123   124    1
    11   101   100    2
    12    99   100    1
    13    99   102    1
    14   125   124    1
    15    92    93    1
    16    81    80    2
    17   118   117    2
    18   124   127    1
    19   104   102    1
    20   103   102    1
    21   103   105    1
    22    97    96    1
    23   133   132    2
    24    80    79    1
    25    93    96    1
    26    93    94    1
    27   122   120   ar
    28   130   131    1
    29   117   116    1
    30   127   128    1
    31   127   129    1
    32   119   120    1
    33   119   116    1
    34   120   121   ar
    35   132   131    1
    36   116   115    1
    37    94    95    2
    38   131   134    1
    39    83    82    1
    40   134   135    1
    41    79    82    1
    42    79    78    1
    43   135   136    1
    44   136   138   ar
    45   136   137   ar
    46    78    68   am
    47    69    68    2
    48    68    67    1
    49   106   107    1
    50    53    52    2
    51    50    51    1
    52   114   113    2
    53    67    70    1
    54    67    66    1
    55    57    55   ar
    56    57    59   ar
    57   110   107    1
    58   109   108    2
    59   113   112    1
    60    52    51    1
    61    52    60   am
    62   107   108    1
    63    72    74   ar
    64    72    71   ar
    65    54    51    1
    66    54    55    1
    67    70    71    1
    68   112   111    1
    69    55    56   ar
    70    61    62    1
    71    61    60    1
    72    61    64    1
    73    59    58   ar
    74    74    76   ar
    75    62    66    1
    76    62    63    1
    77    71    73   ar
    78    64    65    1
    79    38    36   am
    80    56    58   ar
    81    37    36    2
    82    76    77    1
    83    76    75   ar
    84    36    35    1
    85    73    75   ar
    86    49    47    1
    87    34    33    2
    88    48    47    1
    89    18    17   ar
    90    47    46    2
    91    35    32    1
    92    46    45    1
    93    17    19   ar
    94    17    16    1
    95    45    44    1
    96    33    32    1
    97    33    39   am
    98    32    31    1
    99     9     7   ar
   100     9    10   ar
   101    15    16    1
   102    15    12    1
   103    14    13    2
   104   147   145   ar
   105   147   149   ar
   106     7     6   ar
   107   139   140    1
   108   145   144   ar
   109   149   148   ar
   110    40    39    1
   111    40    41    1
   112    40    43    1
   113    13    12    1
   114    29    28    1
   115   140   141    1
   116   140   143    1
   117    12    11    1
   118    44    43    1
   119    30    28    1
   120    10     8   ar
   121    41    42    2
   122     6     5    1
   123     6     8   ar
   124   141   142    2
   125   144   143    1
   126   144   146   ar
   127   148   146   ar
   128    28    27    2
   129     5     2    1
   130     1     2    1
   131     2     3    1
   132     4     3    2
   133    27    26    1
   134    26    25    1
   135    25    24    1
   136    24    21    1
   137    23    22    2
   138    21    22    1
   139    21    20    1
