@<TRIPOS>MOLECULE
tmp/2jeyB00.pdb
 190 191 0 0 0
SMALL
GASTEIGER

@<TRIPOS>ATOM
      1  N         11.0060   -9.3670  -45.2220 N.3    69  TYR69      -0.1241
      2  CA        10.7670  -10.4350  -44.2670 C.3    69  TYR69       0.1605
      3  C          9.2990  -10.4510  -43.9370 C.2    69  TYR69       0.2264
      4  O          8.6630   -9.4090  -43.7540 O.2    69  TYR69      -0.2867
      5  CB        11.5830  -10.1800  -43.0170 C.3    69  TYR69       0.0534
      6  CG        11.4390  -11.1980  -41.9110 C.ar   69  TYR69      -0.0201
      7  CD1       10.7540  -10.8790  -40.7340 C.ar   69  TYR69      -0.0009
      8  CD2       12.0160  -12.4640  -42.0130 C.ar   69  TYR69      -0.0009
      9  CE1       10.6310  -11.8000  -39.6880 C.ar   69  TYR69       0.0417
     10  CE2       11.9010  -13.3980  -40.9690 C.ar   69  TYR69       0.0417
     11  CZ        11.2090  -13.0570  -39.8050 C.ar   69  TYR69       0.1957
     12  OH        11.0910  -13.9690  -38.7580 O.3    69  TYR69      -0.2866
     13  N          6.8020  -11.6580  -41.1170 N.3    71  ASP71      -0.1239
     14  CA         6.8900  -12.1530  -39.7760 C.3    71  ASP71       0.1674
     15  C          6.0450  -13.3780  -39.5280 C.2    71  ASP71       0.2266
     16  O          4.8720  -13.4330  -39.8910 O.2    71  ASP71      -0.2867
     17  CB         6.5330  -11.1140  -38.7500 C.3    71  ASP71       0.1410
     18  CG         6.8330  -11.6040  -37.3820 C.2    71  ASP71       0.3668
     19  OD1        5.8610  -11.9520  -36.6470 O.co2  71  ASP71      -0.2456
     20  OD2        8.0600  -11.7330  -37.1140 O.co2  71  ASP71      -0.2456
     21  N          0.5760   -6.3200  -40.0000 N.3    83  TRP83      -0.1241
     22  CA         1.7570   -5.5900  -40.3720 C.3    83  TRP83       0.1605
     23  C          2.4240   -6.2840  -41.5360 C.2    83  TRP83       0.2264
     24  O          3.2230   -5.6690  -42.2610 O.2    83  TRP83      -0.2867
     25  CB         2.7080   -5.5130  -39.1830 C.3    83  TRP83       0.0550
     26  CG         2.0970   -4.8000  -38.0140 C.ar   83  TRP83       0.0003
     27  CD1        1.6860   -5.3550  -36.8500 C.ar   83  TRP83       0.0946
     28  CD2        1.8230   -3.4000  -37.9100 C.ar   83  TRP83       0.0152
     29  NE1        1.1720   -4.3940  -36.0190 N.ar   83  TRP83      -0.2442
     30  CE2        1.2510   -3.1820  -36.6450 C.ar   83  TRP83       0.0810
     31  CE3        2.0150   -2.3130  -38.7580 C.ar   83  TRP83       0.0012
     32  CZ2        0.8610   -1.9230  -36.2070 C.ar   83  TRP83       0.0191
     33  CZ3        1.6230   -1.0590  -38.3300 C.ar   83  TRP83       0.0001
     34  CH2        1.0480   -0.8730  -37.0630 C.ar   83  TRP83       0.0015
     35  N          8.0540   -0.4630  -39.9980 N.3   118  GLY118     -0.1210
     36  CA         8.5260   -1.7890  -40.3590 C.3   118  GLY118      0.1956
     37  C         10.0330   -1.9450  -40.2010 C.2   118  GLY118      0.2612
     38  O         10.6500   -2.7570  -40.8900 O.2   118  GLY118     -0.2717
     39  N         10.6230   -1.1600  -39.3000 N.am  119  GLY119     -0.1956
     40  CA        12.0440   -1.2610  -38.9650 C.3   119  GLY119      0.1869
     41  C         12.9670   -1.1390  -40.1540 C.2   119  GLY119      0.2309
     42  O         14.0840   -1.6560  -40.1420 O.2   119  GLY119     -0.2863
     43  N         12.8960   -2.7590  -42.4560 N.3   121  TYR121     -0.1227
     44  CA        12.9780   -4.0760  -43.0730 C.3   121  TYR121      0.1736
     45  C         11.6360   -4.5900  -43.5810 C.2   121  TYR121      0.2596
     46  O         11.5910   -5.6270  -44.2420 O.2   121  TYR121     -0.2718
     47  CB        13.5690   -5.0990  -42.1120 C.3   121  TYR121      0.0548
     48  CG        12.6230   -5.4560  -41.0150 C.ar  121  TYR121     -0.0200
     49  CD1       11.5800   -6.3520  -41.2370 C.ar  121  TYR121     -0.0009
     50  CD2       12.7610   -4.8970  -39.7520 C.ar  121  TYR121     -0.0009
     51  CE1       10.6920   -6.6820  -40.2420 C.ar  121  TYR121      0.0417
     52  CE2       11.8680   -5.2260  -38.7360 C.ar  121  TYR121      0.0417
     53  CZ        10.8310   -6.1230  -39.0010 C.ar  121  TYR121      0.1957
     54  OH         9.9490   -6.4560  -38.0140 O.3   121  TYR121     -0.2866
     55  N         10.5430   -3.9020  -43.2640 N.am  122  SER122     -0.1952
     56  CA         9.2480   -4.3550  -43.7210 C.3   122  SER122      0.1924
     57  C          8.2640   -3.2220  -43.8540 C.2   122  SER122      0.2314
     58  O          8.6240   -2.0600  -43.7700 O.2   122  SER122     -0.2863
     59  CB         8.6870   -5.3820  -42.7680 C.3   122  SER122      0.2116
     60  OG         8.3690   -4.7720  -41.5290 O.3   122  SER122     -0.2180
     61  N          5.3160    6.3920  -39.1110 N.3   199  GLU199     -0.1231
     62  CA         5.5330    5.8400  -37.7970 C.3   199  GLU199      0.1699
     63  C          6.7490    4.9190  -37.7530 C.2   199  GLU199      0.2592
     64  O          7.1500    4.3940  -38.7850 O.2   199  GLU199     -0.2718
     65  CB         4.2700    5.1540  -37.3360 C.3   199  GLU199      0.0402
     66  CG         4.2820    4.7080  -35.9160 C.3   199  GLU199      0.1161
     67  CD         4.5980    3.2570  -35.8050 C.2   199  GLU199      0.3649
     68  OE1        4.6420    2.5980  -36.8470 O.co2 199  GLU199     -0.2457
     69  OE2        4.8330    2.7790  -34.6830 O.co2 199  GLU199     -0.2457
     70  N          7.3490    4.7600  -36.5640 N.am  200  SER200     -0.1952
     71  CA         8.5160    3.9080  -36.3660 C.3   200  SER200      0.1924
     72  C          9.5460    4.2760  -37.4470 C.2   200  SER200      0.2314
     73  O          9.9190    5.4530  -37.6030 O.2   200  SER200     -0.2863
     74  CB         8.0760    2.4600  -36.4550 C.3   200  SER200      0.2116
     75  OG         9.0770    1.5450  -36.0210 O.3   200  SER200     -0.2180
     76  N         19.1280  -11.6280  -43.7730 N.3   275  GLU275     -0.1231
     77  CA        18.9680  -10.2360  -43.3790 C.3   275  GLU275      0.1699
     78  C         19.1520  -10.1270  -41.8790 C.2   275  GLU275      0.2592
     79  O         19.8450   -9.2440  -41.3850 O.2   275  GLU275     -0.2718
     80  CB        17.5590   -9.7970  -43.7440 C.3   275  GLU275      0.0402
     81  CG        17.4610   -8.4200  -44.3260 C.3   275  GLU275      0.1161
     82  CD        16.1250   -7.7930  -44.0330 C.2   275  GLU275      0.3649
     83  OE1       15.0870   -8.4430  -44.2990 O.co2 275  GLU275     -0.2457
     84  OE2       16.1270   -6.6490  -43.5080 O.co2 275  GLU275     -0.2457
     85  N         18.5400  -11.0510  -41.1520 N.am  276  TRP276     -0.1976
     86  CA        18.6530  -11.0320  -39.7140 C.3   276  TRP276      0.1640
     87  C         19.9980  -11.6200  -39.1710 C.2   276  TRP276      0.2290
     88  O         20.5250  -11.0510  -38.1960 O.2   276  TRP276     -0.2864
     89  CB        17.3960  -11.6430  -39.0740 C.3   276  TRP276      0.0576
     90  CG        16.8870  -10.9050  -37.8330 C.ar  276  TRP276      0.0006
     91  CD1       17.3760   -9.7390  -37.2980 C.ar  276  TRP276      0.0946
     92  CD2       15.7650  -11.2740  -37.0100 C.ar  276  TRP276      0.0152
     93  NE1       16.6570   -9.3840  -36.1810 N.ar  276  TRP276     -0.2442
     94  CE2       15.6590  -10.3020  -35.9840 C.ar  276  TRP276      0.0810
     95  CE3       14.8470  -12.3400  -37.0330 C.ar  276  TRP276      0.0012
     96  CZ2       14.6670  -10.3660  -34.9760 C.ar  276  TRP276      0.0191
     97  CZ3       13.8550  -12.4040  -36.0290 C.ar  276  TRP276      0.0001
     98  CH2       13.7810  -11.4190  -35.0140 C.ar  276  TRP276      0.0015
     99  N         16.8870   -6.3490  -29.7370 N.3   284  ILE284     -0.1231
    100  CA        15.5190   -6.0680  -30.1450 C.3   284  ILE284      0.1692
    101  C         15.4710   -4.5990  -30.4630 C.2   284  ILE284      0.2592
    102  O         16.2760   -3.8340  -29.9680 O.2   284  ILE284     -0.2718
    103  CB        14.4350   -6.3970  -29.1170 C.3   284  ILE284      0.0266
    104  CG1       14.8680   -6.0210  -27.7080 C.3   284  ILE284      0.0019
    105  CG2       14.0390   -7.8380  -29.2060 C.3   284  ILE284      0.0020
    106  CD1       13.7050   -5.6090  -26.8250 C.3   284  ILE284      0.0001
    107  N         14.5300   -4.2250  -31.3080 N.am  285  PHE285     -0.1962
    108  CA        14.3550   -2.8660  -31.7570 C.3   285  PHE285      0.1771
    109  C         15.6060   -2.3910  -32.3810 C.2   285  PHE285      0.2619
    110  O         15.9680   -1.2130  -32.2660 O.2   285  PHE285     -0.2715
    111  CB        13.9540   -1.9060  -30.6540 C.3   285  PHE285      0.0574
    112  CG        13.0020   -0.8500  -31.1110 C.ar  285  PHE285     -0.0200
    113  CD1       13.1900   -0.2020  -32.3130 C.ar  285  PHE285     -0.0042
    114  CD2       11.9050   -0.5230  -30.3490 C.ar  285  PHE285     -0.0042
    115  CE1       12.3170    0.7410  -32.7360 C.ar  285  PHE285     -0.0003
    116  CE2       11.0190    0.4380  -30.7770 C.ar  285  PHE285     -0.0003
    117  CZ        11.2340    1.0660  -31.9720 C.ar  285  PHE285     -0.0000
    118  N         16.2660   -3.3280  -33.0410 N.am  286  ARG286     -0.1963
    119  CA        17.4540   -3.0500  -33.7740 C.3   286  ARG286      0.1729
    120  C         17.2110   -3.7830  -35.0680 C.2   286  ARG286      0.2616
    121  O         16.6750   -4.8900  -35.0540 O.2   286  ARG286     -0.2715
    122  CB        18.6300   -3.6310  -33.0260 C.3   286  ARG286      0.0348
    123  CG        19.9070   -2.8500  -33.1510 C.3   286  ARG286      0.0492
    124  CD        20.2030   -2.0730  -31.8830 C.3   286  ARG286      0.2205
    125  NE        19.0370   -1.3620  -31.3930 N.pl3 286  ARG286     -0.0865
    126  CZ        19.0190   -0.5810  -30.3190 C.cat 286  ARG286      0.5346
    127  NH1       20.1070   -0.3940  -29.5660 N.pl3 286  ARG286      0.1354
    128  NH2       17.8820    0.0050  -29.9870 N.pl3 286  ARG286      0.1354
    129  N         17.5580   -3.1590  -36.1870 N.am  287  PHE287     -0.1960
    130  CA        17.3030   -3.7440  -37.4920 C.3   287  PHE287      0.1771
    131  C         18.5450   -3.7070  -38.3480 C.2   287  PHE287      0.2620
    132  O         19.3500   -2.7770  -38.2590 O.2   287  PHE287     -0.2715
    133  CB        16.1860   -2.9810  -38.1670 C.3   287  PHE287      0.0574
    134  CG        15.0940   -2.6380  -37.2450 C.ar  287  PHE287     -0.0200
    135  CD1       14.3000   -3.6310  -36.7010 C.ar  287  PHE287     -0.0042
    136  CD2       14.8680   -1.3270  -36.8840 C.ar  287  PHE287     -0.0042
    137  CE1       13.2920   -3.3070  -35.8310 C.ar  287  PHE287     -0.0003
    138  CE2       13.8620   -1.0050  -35.9990 C.ar  287  PHE287     -0.0003
    139  CZ        13.0810   -1.9920  -35.4780 C.ar  287  PHE287     -0.0000
    140  N         18.6910   -4.7160  -39.1870 N.am  288  SER288     -0.1950
    141  CA        19.9160   -4.9070  -39.9300 C.3   288  SER288      0.1924
    142  C         20.1830   -3.8730  -40.9990 C.2   288  SER288      0.2314
    143  O         21.3000   -3.3870  -41.1370 O.2   288  SER288     -0.2863
    144  CB        19.9000   -6.2750  -40.5560 C.3   288  SER288      0.2116
    145  OG        19.9230   -7.2380  -39.5290 O.3   288  SER288     -0.2180
    146  N          5.7000   -4.0880  -27.5300 N.3   327  TYR327     -0.1227
    147  CA         5.5520   -4.8890  -28.7250 C.3   327  TYR327      0.1736
    148  C          6.8130   -5.7020  -28.9590 C.2   327  TYR327      0.2595
    149  O          6.7300   -6.8840  -29.2050 O.2   327  TYR327     -0.2718
    150  CB         5.2490   -3.9810  -29.9060 C.3   327  TYR327      0.0548
    151  CG         4.7590   -4.6690  -31.1520 C.ar  327  TYR327     -0.0200
    152  CD1        3.5550   -4.3010  -31.7280 C.ar  327  TYR327     -0.0009
    153  CD2        5.5180   -5.6470  -31.7880 C.ar  327  TYR327     -0.0009
    154  CE1        3.0980   -4.9070  -32.8920 C.ar  327  TYR327      0.0417
    155  CE2        5.0690   -6.2710  -32.9470 C.ar  327  TYR327      0.0417
    156  CZ         3.8570   -5.8950  -33.4930 C.ar  327  TYR327      0.1957
    157  OH         3.3910   -6.4940  -34.6430 O.3   327  TYR327     -0.2866
    158  N          7.9730   -5.0810  -28.8030 N.am  328  PHE328     -0.1976
    159  CA         9.2700   -5.6610  -29.1890 C.3   328  PHE328      0.1639
    160  C          9.8160   -6.7330  -28.2510 C.2   328  PHE328      0.2290
    161  O         10.7600   -7.4480  -28.5820 O.2   328  PHE328     -0.2864
    162  CB        10.2980   -4.5480  -29.2790 C.3   328  PHE328      0.0560
    163  CG         9.9910   -3.5540  -30.3260 C.ar  328  PHE328     -0.0200
    164  CD1        9.0590   -2.5500  -30.0930 C.ar  328  PHE328     -0.0042
    165  CD2       10.6110   -3.6260  -31.5600 C.ar  328  PHE328     -0.0042
    166  CE1        8.7550   -1.6490  -31.0700 C.ar  328  PHE328     -0.0003
    167  CE2       10.3220   -2.7100  -32.5440 C.ar  328  PHE328     -0.0003
    168  CZ         9.3930   -1.7250  -32.2990 C.ar  328  PHE328     -0.0000
    169  N          9.8290  -10.6000  -29.2520 N.3   331  TYR331     -0.1241
    170  CA        10.6840  -10.9790  -30.3700 C.3   331  TYR331      0.1605
    171  C         12.1590  -11.1510  -29.9850 C.2   331  TYR331      0.2264
    172  O         13.0740  -10.6930  -30.7010 O.2   331  TYR331     -0.2867
    173  CB        10.5640   -9.9470  -31.4860 C.3   331  TYR331      0.0534
    174  CG         9.2630   -9.9770  -32.2380 C.ar  331  TYR331     -0.0201
    175  CD1        8.2370   -9.0670  -31.9430 C.ar  331  TYR331     -0.0009
    176  CD2        9.0640  -10.8860  -33.2760 C.ar  331  TYR331     -0.0009
    177  CE1        7.0410   -9.0820  -32.6490 C.ar  331  TYR331      0.0417
    178  CE2        7.8680  -10.9040  -33.9860 C.ar  331  TYR331      0.0417
    179  CZ         6.8650  -10.0070  -33.6700 C.ar  331  TYR331      0.1957
    180  OH         5.6960  -10.0360  -34.3890 O.3   331  TYR331     -0.2866
    181  N          3.6820   -0.1590  -29.8400 N.3   437  HIS437     -0.1241
    182  CA         4.2220    0.5400  -30.9840 C.3   437  HIS437      0.1621
    183  C          3.3360    0.2990  -32.1670 C.2   437  HIS437      0.2264
    184  O          3.0090   -0.8400  -32.4760 O.2   437  HIS437     -0.2867
    185  CB         5.5500   -0.1020  -31.2940 C.3   437  HIS437      0.0745
    186  CG         6.4390    0.7020  -32.1780 C.ar  437  HIS437      0.0817
    187  ND1        6.7540    2.0180  -31.9220 N.ar  437  HIS437     -0.2268
    188  CD2        7.1460    0.3530  -33.2760 C.ar  437  HIS437      0.1154
    189  CE1        7.6020    2.4550  -32.8360 C.ar  437  HIS437      0.1986
    190  NE2        7.8630    1.4610  -33.6660 N.ar  437  HIS437     -0.2212
@<TRIPOS>BOND
     1     1     2    1
     2    81    82    1
     3    81    80    1
     4    83    82   ar
     5     2     3    1
     6     2     5    1
     7    46    45    2
     8    82    84   ar
     9     3     4    2
    10    57    58    2
    11    57    56    1
    12    76    77    1
    13    80    77    1
    14    56    55    1
    15    56    59    1
    16    45    55   am
    17    45    44    1
    18    77    78    1
    19    44    43    1
    20    44    47    1
    21     5     6    1
    22    59    60    1
    23    24    23    2
    24    47    48    1
    25     8     6   ar
    26     8    10   ar
    27     6     7   ar
    28    78    79    2
    29    78    85   am
    30    23    22    1
    31    49    48   ar
    32    49    51   ar
    33    85    86    1
    34   143   142    2
    35    13    14    1
    36    48    50   ar
    37   142   141    1
    38    10    11   ar
    39    38    37    2
    40     7     9   ar
    41   144   141    1
    42   144   145    1
    43    22    21    1
    44    22    25    1
    45    36    37    1
    46    36    35    1
    47    51    53   ar
    48    37    39   am
    49    41    42    2
    50    41    40    1
    51   141   140    1
    52    16    15    2
    53    11     9   ar
    54    11    12    1
    55    14    15    1
    56    14    17    1
    57    50    52   ar
    58    86    87    1
    59    86    89    1
    60    39    40    1
    61   140   131   am
    62    25    26    1
    63    87    88    2
    64    61    62    1
    65    89    90    1
    66    53    52   ar
    67    53    54    1
    68    64    63    2
    69    31    33   ar
    70    31    28   ar
    71    17    18    1
    72   131   132    2
    73   131   130    1
    74    33    34   ar
    75   133   130    1
    76   133   134    1
    77    26    28   ar
    78    26    27   ar
    79    28    30   ar
    80    90    91   ar
    81    90    92   ar
    82    62    63    1
    83    62    65    1
    84    63    70   am
    85    73    72    2
    86   130   129    1
    87    72    71    1
    88    18    20   ar
    89    18    19   ar
    90    65    66    1
    91    91    93   ar
    92   134   136   ar
    93   134   135   ar
    94    34    32   ar
    95    95    92   ar
    96    95    97   ar
    97    92    94   ar
    98   136   138   ar
    99    27    29   ar
   100    68    67   ar
   101   135   137   ar
   102    30    32   ar
   103    30    29   ar
   104    70    71    1
   105    74    71    1
   106    74    75    1
   107   129   120   am
   108    93    94   ar
   109    97    98   ar
   110   138   139   ar
   111    94    96   ar
   112    66    67    1
   113   137   139   ar
   114    67    69   ar
   115   120   121    2
   116   120   119    1
   117    98    96   ar
   118   157   156    1
   119   180   179    1
   120   178   179   ar
   121   178   176   ar
   122   119   118    1
   123   119   122    1
   124   179   177   ar
   125   190   188   ar
   126   190   189   ar
   127   156   155   ar
   128   156   154   ar
   129   188   186   ar
   130   176   174   ar
   131   123   122    1
   132   123   124    1
   133   118   109   am
   134   155   153   ar
   135   154   152   ar
   136   189   187   ar
   137   115   113   ar
   138   115   117   ar
   139   177   175   ar
   140   167   168   ar
   141   167   165   ar
   142   184   183    2
   143   109   110    2
   144   109   108    1
   145   113   112   ar
   146   168   166   ar
   147   174   175   ar
   148   174   173    1
   149   186   187   ar
   150   186   185    1
   151   183   182    1
   152   117   116   ar
   153   124   125    1
   154   153   151   ar
   155   108   107    1
   156   108   111    1
   157   152   151   ar
   158   165   163   ar
   159   173   170    1
   160   125   126    2
   161   107   101   am
   162   185   182    1
   163   151   150    1
   164   112   111    1
   165   112   114   ar
   166   166   164   ar
   167   182   181    1
   168   116   114   ar
   169   172   171    2
   170   101   100    1
   171   101   102    2
   172   170   171    1
   173   170   169    1
   174   163   164   ar
   175   163   162    1
   176   126   128    1
   177   126   127    1
   178   100    99    1
   179   100   103    1
   180   150   147    1
   181   162   159    1
   182   105   103    1
   183   149   148    2
   184   159   158    1
   185   159   160    1
   186   103   104    1
   187   148   158   am
   188   148   147    1
   189   147   146    1
   190   161   160    2
   191   104   106    1
