@<TRIPOS>MOLECULE
tmp/2jf1A00.pdb
 151 148 0 0 0
SMALL
GASTEIGER

@<TRIPOS>ATOM
      1  N         -2.7200    3.0360   26.7800 N.3     5  VAL5       -0.1245
      2  CA        -1.7190    2.5610   25.8440 C.3     5  VAL5        0.1561
      3  C         -0.8970    1.4660   26.5240 C.2     5  VAL5        0.2260
      4  O         -0.5120    1.6120   27.6690 O.2     5  VAL5       -0.2867
      5  CB        -0.7910    3.7120   25.3140 C.3     5  VAL5        0.0252
      6  CG1        0.2770    3.1320   24.3180 C.3     5  VAL5        0.0019
      7  CG2       -1.6160    4.8080   24.6400 C.3     5  VAL5        0.0019
      8  N         -2.5380    0.1780   20.3690 N.3    27  THR27      -0.1218
      9  CA        -3.1470    1.5040   20.2200 C.3    27  THR27       0.1862
     10  C         -4.6860    1.4690   20.1390 C.2    27  THR27       0.2287
     11  O         -5.3250    2.5200   20.2630 O.2    27  THR27      -0.2866
     12  CB        -2.5760    2.2660   18.9860 C.3    27  THR27       0.1770
     13  OG1       -2.7690    1.4770   17.8120 O.3    27  THR27      -0.2211
     14  CG2       -1.1070    2.5420   19.1250 C.3    27  THR27       0.0375
     15  N         -6.6980    3.2050   22.9020 N.3    30  ALA30      -0.1231
     16  CA        -6.1760    4.5380   23.2250 C.3    30  ALA30       0.1694
     17  C         -6.8760    5.6550   22.4400 C.2    30  ALA30       0.2593
     18  O         -7.4130    5.4330   21.3440 O.2    30  ALA30      -0.2718
     19  CB        -4.7010    4.5740   22.9190 C.3    30  ALA30       0.0304
     20  N         -6.8680    6.8550   22.9930 N.am   31  GLY31      -0.1942
     21  CA        -7.3670    7.9920   22.2620 C.3    31  GLY31       0.2014
     22  C         -6.3150    8.5020   21.3010 C.2    31  GLY31       0.2639
     23  O         -5.3270    7.8380   21.0200 O.2    31  GLY31      -0.2714
     24  N         -6.5350    9.7050   20.7920 N.am   32  ALA32      -0.1963
     25  CA        -5.5900   10.3490   19.9250 C.3    32  ALA32       0.1728
     26  C         -4.6220   11.1080   20.8320 C.2    32  ALA32       0.2617
     27  O         -5.0070   11.5570   21.9120 O.2    32  ALA32      -0.2715
     28  CB        -6.3380   11.2820   19.0550 C.3    32  ALA32       0.0334
     29  N         -3.3710   11.2460   20.4280 N.am   33  GLY33      -0.1940
     30  CA        -2.4210   11.9710   21.2500 C.3    33  GLY33       0.2014
     31  C         -1.0430   11.8260   20.6730 C.2    33  GLY33       0.2639
     32  O         -0.8460   11.1390   19.6580 O.2    33  GLY33      -0.2714
     33  N         -0.0940   12.4820   21.3140 N.am   34  GLY34      -0.1939
     34  CA         1.3060   12.3340   20.9670 C.3    34  GLY34       0.2014
     35  C          1.9410   11.1590   21.7280 C.2    34  GLY34       0.2639
     36  O          1.8030   11.0600   22.9690 O.2    34  GLY34      -0.2714
     37  N          2.6390   10.3180   20.9440 N.am   35  LEU35      -0.1963
     38  CA         3.3080    9.1250   21.3900 C.3    35  LEU35       0.1728
     39  C          4.8110    9.3330   21.2230 C.2    35  LEU35       0.2616
     40  O          5.2820    9.5070   20.1010 O.2    35  LEU35      -0.2715
     41  CB         2.8120    7.9170   20.5720 C.3    35  LEU35       0.0311
     42  CG         3.3050    6.5440   21.0610 C.3    35  LEU35       0.0022
     43  CD1        2.8160    6.2460   22.4680 C.3    35  LEU35       0.0001
     44  CD2        2.9560    5.4170   20.0790 C.3    35  LEU35       0.0001
     45  N          5.5390    9.3820   22.3430 N.am   36  ALA36      -0.1963
     46  CA         6.9830    9.4740   22.2950 C.3    36  ALA36       0.1728
     47  C          7.7090    8.2440   22.8710 C.2    36  ALA36       0.2616
     48  O          7.3450    7.7350   23.9430 O.2    36  ALA36      -0.2715
     49  CB         7.4710   10.7500   22.9720 C.3    36  ALA36       0.0334
     50  N          8.7110    7.7800   22.1230 N.am   37  ILE37      -0.1963
     51  CA         9.6120    6.7300   22.5150 C.3    37  ILE37       0.1727
     52  C         10.9890    7.3490   22.7430 C.2    37  ILE37       0.2616
     53  O         11.5120    8.0760   21.8940 O.2    37  ILE37      -0.2715
     54  CB         9.6360    5.5600   21.4690 C.3    37  ILE37       0.0290
     55  CG1        8.3080    4.7940   21.5300 C.3    37  ILE37       0.0022
     56  CG2       10.7260    4.5210   21.8110 C.3    37  ILE37       0.0023
     57  CD1        7.3490    5.1830   20.5420 C.3    37  ILE37       0.0001
     58  N         11.5550    7.1360   23.9210 N.am   38  ALA38      -0.1963
     59  CA        12.8880    7.6100   24.1730 C.3    38  ALA38       0.1728
     60  C         13.7150    6.4370   24.6580 C.2    38  ALA38       0.2616
     61  O         13.1850    5.5440   25.3390 O.2    38  ALA38      -0.2715
     62  CB        12.8850    8.7270   25.2030 C.3    38  ALA38       0.0334
     63  N         15.0110    6.4730   24.3500 N.am   39  VAL39      -0.1963
     64  CA        15.9940    5.5580   24.9020 C.3    39  VAL39       0.1727
     65  C         17.0550    6.3940   25.5570 C.2    39  VAL39       0.2616
     66  O         17.5580    7.3500   24.9460 O.2    39  VAL39      -0.2715
     67  CB        16.6210    4.6750   23.8090 C.3    39  VAL39       0.0290
     68  CG1       17.6650    3.7490   24.4090 C.3    39  VAL39       0.0023
     69  CG2       15.5310    3.8810   23.1000 C.3    39  VAL39       0.0023
     70  N         17.3710    6.0440   26.8020 N.am   40  GLU40      -0.1963
     71  CA        18.3350    6.7280   27.5940 C.3    40  GLU40       0.1733
     72  C         19.3790    5.7380   28.1450 C.2    40  GLU40       0.2617
     73  O         19.0460    4.7700   28.8200 O.2    40  GLU40      -0.2715
     74  CB        17.5710    7.4000   28.7150 C.3    40  GLU40       0.0429
     75  CG        18.3290    8.3290   29.5640 C.3    40  GLU40       0.1163
     76  CD        17.4130    8.9660   30.5880 C.2    40  GLU40       0.3649
     77  OE1       16.2810    9.3490   30.1820 O.co2  40  GLU40      -0.2457
     78  OE2       17.8250    9.0580   31.7770 O.co2  40  GLU40      -0.2457
     79  N         20.6430    5.9410   27.8060 N.am   41  GLY41      -0.1941
     80  CA        21.6850    5.0810   28.3460 C.3    41  GLY41       0.1998
     81  C         23.0640    5.5260   27.9080 C.2    41  GLY41       0.2481
     82  O         23.2380    6.6850   27.5350 O.2    41  GLY41      -0.2729
     83  N         24.0530    4.6330   28.0070 N.am   42  PRO42      -0.2715
     84  CA        25.4520    4.9430   27.6980 C.3    42  PRO42       0.1536
     85  C         25.8190    5.2980   26.2430 C.2    42  PRO42       0.2599
     86  O         26.9980    5.5870   25.9740 O.2    42  PRO42      -0.2715
     87  CB        26.2010    3.6880   28.1670 C.3    42  PRO42       0.0310
     88  CG        25.1750    2.6010   28.1580 C.3    42  PRO42       0.0237
     89  CD        23.9060    3.2750   28.5680 C.3    42  PRO42       0.0939
     90  N         24.8410    5.2830   25.3310 N.am   43  SER43      -0.1936
     91  CA        25.0340    5.6740   23.9430 C.3    43  SER43       0.2055
     92  C         23.7200    6.0850   23.3180 C.2    43  SER43       0.2643
     93  O         22.6550    5.9510   23.9270 O.2    43  SER43      -0.2714
     94  CB        25.6720    4.5600   23.1130 C.3    43  SER43       0.2130
     95  OG        24.7540    3.5110   22.8200 O.3    43  SER43      -0.2179
     96  N         23.7950    6.5920   22.0980 N.am   44  LYS44      -0.1963
     97  CA        22.6400    7.0730   21.4010 C.3    44  LYS44       0.1728
     98  C         21.9670    5.9320   20.6500 C.2    44  LYS44       0.2616
     99  O         22.6290    4.9940   20.1950 O.2    44  LYS44      -0.2715
    100  CB        23.0680    8.1430   20.4040 C.3    44  LYS44       0.0311
    101  CG        22.9930    9.5540   20.9250 C.3    44  LYS44       0.0038
    102  CD        21.7800   10.1920   20.2790 C.3    44  LYS44       0.0206
    103  CE        21.4010   11.5310   20.8600 C.3    44  LYS44       0.1093
    104  NZ        20.2130   12.0530   20.1060 N.3    44  LYS44      -0.1314
    105  N         20.6580    6.0420   20.4630 N.am   45  ALA45      -0.1977
    106  CA        19.8960    5.0530   19.7290 C.3    45  ALA45       0.1597
    107  C         19.4510    5.6850   18.4330 C.2    45  ALA45       0.2287
    108  O         19.2780    6.9050   18.3570 O.2    45  ALA45      -0.2864
    109  CB        18.6380    4.6240   20.5580 C.3    45  ALA45       0.0319
    110  N         15.9480    4.9790   16.5350 N.3    47  ILE47      -0.1231
    111  CA        14.6240    4.4820   16.8760 C.3    47  ILE47       0.1692
    112  C         13.7020    4.7230   15.6880 C.2    47  ILE47       0.2593
    113  O         13.5570    5.8670   15.2720 O.2    47  ILE47      -0.2718
    114  CB        14.0020    5.2690   18.0920 C.3    47  ILE47       0.0266
    115  CG1       15.0160    5.4160   19.2340 C.3    47  ILE47       0.0019
    116  CG2       12.7040    4.6180   18.5530 C.3    47  ILE47       0.0020
    117  CD1       14.7680    6.4880   20.2680 C.3    47  ILE47       0.0001
    118  N         13.0570    3.6690   15.1680 N.am   48  SER48      -0.1938
    119  CA        12.0380    3.8220   14.1170 C.3    48  SER48       0.2055
    120  C         10.6860    3.2760   14.5140 C.2    48  SER48       0.2643
    121  O         10.6170    2.2570   15.1580 O.2    48  SER48      -0.2714
    122  CB        12.4190    3.0570   12.8220 C.3    48  SER48       0.2130
    123  OG        13.6500    3.4820   12.3410 O.3    48  SER48      -0.2179
    124  N          9.6180    3.9150   14.0520 N.am   49  PHE49      -0.1973
    125  CA         8.3250    3.2730   14.0450 C.3    49  PHE49       0.1639
    126  C          8.2220    2.4060   12.8400 C.2    49  PHE49       0.2290
    127  O          9.0200    2.5350   11.9120 O.2    49  PHE49      -0.2864
    128  CB         7.2010    4.2900   14.0280 C.3    49  PHE49       0.0560
    129  CG         7.0250    4.9790   15.3150 C.ar   49  PHE49      -0.0200
    130  CD1        6.4730    4.3100   16.4020 C.ar   49  PHE49      -0.0042
    131  CD2        7.4180    6.2920   15.4540 C.ar   49  PHE49      -0.0042
    132  CE1        6.3160    4.9520   17.6210 C.ar   49  PHE49      -0.0003
    133  CE2        7.2810    6.9380   16.6550 C.ar   49  PHE49      -0.0003
    134  CZ         6.7220    6.2760   17.7490 C.ar   49  PHE49      -0.0000
    135  N          1.2490   -0.4340   16.6120 N.3    52  CYS52      -0.1235
    136  CA         2.4570   -0.1970   15.8510 C.3    52  CYS52       0.1677
    137  C          3.6860   -0.9320   16.4280 C.2    52  CYS52       0.2270
    138  O          3.6600   -1.4790   17.5210 O.2    52  CYS52      -0.2867
    139  CB         2.7290    1.2860   15.7330 C.3    52  CYS52       0.0956
    140  SG         3.0540    2.1570   17.2040 S.3    52  CYS52      -0.0801
    141  N          2.6920    8.9020   26.4830 N.3    70  PHE70      -0.1241
    142  CA         1.5350    9.3380   25.6950 C.3    70  PHE70       0.1605
    143  C          1.0930   10.6780   26.2860 C.2    70  PHE70       0.2264
    144  O          0.8540   10.7650   27.4920 O.2    70  PHE70      -0.2867
    145  CB         0.4250    8.2620   25.7020 C.3    70  PHE70       0.0534
    146  CG        -0.8620    8.6910   25.0600 C.ar   70  PHE70      -0.0203
    147  CD1       -1.1340    8.3810   23.7620 C.ar   70  PHE70      -0.0042
    148  CD2       -1.8250    9.3970   25.7930 C.ar   70  PHE70      -0.0042
    149  CE1       -2.3500    8.7970   23.1480 C.ar   70  PHE70      -0.0003
    150  CE2       -3.0520    9.8120   25.1850 C.ar   70  PHE70      -0.0003
    151  CZ        -3.2950    9.5130   23.8710 C.ar   70  PHE70      -0.0000
@<TRIPOS>BOND
     1   127   126    2
     2   123   122    1
     3   122   119    1
     4   126   125    1
     5   128   125    1
     6   128   129    1
     7   125   124    1
     8   124   120   am
     9   119   120    1
    10   119   118    1
    11   120   121    2
    12   118   112   am
    13   113   112    2
    14   129   131   ar
    15   129   130   ar
    16   131   133   ar
    17   112   111    1
    18   139   136    1
    19   139   140    1
    20   136   137    1
    21   136   135    1
    22   130   132   ar
    23   137   138    2
    24   110   111    1
    25   133   134   ar
    26   111   114    1
    27   132   134   ar
    28    13    12    1
    29   114   116    1
    30   114   115    1
    31   108   107    2
    32   107   106    1
    33    12    14    1
    34    12     9    1
    35    28    25    1
    36   115   117    1
    37    32    31    2
    38   106   105    1
    39   106   109    1
    40    25    24    1
    41    25    26    1
    42    44    42    1
    43    40    39    2
    44   104   103    1
    45    10     9    1
    46    10    11    2
    47    99    98    2
    48     9     8    1
    49   102   103    1
    50   102   101    1
    51   100   101    1
    52   100    97    1
    53    29    26   am
    54    29    30    1
    55   105    98   am
    56    57    55    1
    57    41    42    1
    58    41    38    1
    59    98    97    1
    60    31    30    1
    61    31    33   am
    62    24    22   am
    63    26    27    2
    64    37    38    1
    65    37    35   am
    66    34    33    1
    67    34    35    1
    68    23    22    2
    69    42    43    1
    70    39    38    1
    71    39    45   am
    72    22    21    1
    73    18    17    2
    74    97    96    1
    75    54    55    1
    76    54    56    1
    77    54    51    1
    78    35    36    2
    79    53    52    2
    80    96    92   am
    81    50    51    1
    82    50    47   am
    83    21    20    1
    84    46    45    1
    85    46    47    1
    86    46    49    1
    87    17    20   am
    88    17    16    1
    89    51    52    1
    90    52    58   am
    91    95    94    1
    92    47    48    2
    93    15    16    1
    94    19    16    1
    95    69    67    1
    96    94    91    1
    97   149   147   ar
    98   149   151   ar
    99    92    93    2
   100    92    91    1
   101   147   146   ar
   102    67    68    1
   103    67    64    1
   104   151   150   ar
   105    58    59    1
   106    91    90    1
   107    59    60    1
   108    59    62    1
   109     6     5    1
   110    63    60   am
   111    63    64    1
   112     7     5    1
   113    60    61    2
   114    64    65    1
   115    66    65    2
   116   146   145    1
   117   146   148   ar
   118   150   148   ar
   119     5     2    1
   120    90    85   am
   121    65    70   am
   122   142   145    1
   123   142   143    1
   124   142   141    1
   125     2     3    1
   126     2     1    1
   127    86    85    2
   128    85    84    1
   129   143   144    2
   130     3     4    2
   131    70    71    1
   132    82    81    2
   133    71    72    1
   134    71    74    1
   135    84    83    1
   136    84    87    1
   137    79    72   am
   138    79    80    1
   139    81    83   am
   140    81    80    1
   141    83    89    1
   142    72    73    2
   143    88    87    1
   144    88    89    1
   145    74    75    1
   146    75    76    1
   147    77    76   ar
   148    76    78   ar
