@<TRIPOS>MOLECULE
tmp/2jf3A00.pdb
 87 85 0 0 0
SMALL
GASTEIGER

@<TRIPOS>ATOM
      1  N         31.1560   18.1680    8.5980 N.3    73  GLN73      -0.1231
      2  CA        31.1480   16.7370    8.9090 C.3    73  GLN73       0.1698
      3  C         31.5130   15.8420    7.7200 C.2    73  GLN73       0.2592
      4  O         31.2110   14.6450    7.7200 O.2    73  GLN73      -0.2718
      5  CB        29.7900   16.3360    9.4940 C.3    73  GLN73       0.0381
      6  CG        29.5000   16.9650   10.8510 C.3    73  GLN73       0.0905
      7  CD        28.0340   16.9100   11.2360 C.2    73  GLN73       0.2608
      8  OE1       27.7000   16.7010   12.4000 O.2    73  GLN73      -0.2717
      9  NE2       27.1500   17.1060   10.2610 N.am   73  GLN73      -0.0878
     10  N         32.1680   16.4240    6.7180 N.am   74  ASP74      -0.1960
     11  CA        32.6720   15.6590    5.5810 C.3    74  ASP74       0.1840
     12  C         34.0010   15.0120    5.9610 C.2    74  ASP74       0.2622
     13  O         34.9150   15.6890    6.4410 O.2    74  ASP74      -0.2715
     14  CB        32.8410   16.5620    4.3530 C.3    74  ASP74       0.1450
     15  CG        32.8860   15.7820    3.0420 C.2    74  ASP74       0.3671
     16  OD1       33.0560   14.5430    3.0650 O.co2  74  ASP74      -0.2456
     17  OD2       32.7500   16.4200    1.9760 O.co2  74  ASP74      -0.2456
     18  N         34.0940   13.7000    5.7500 N.am   75  LEU75      -0.1963
     19  CA        35.2960   12.9300    6.0900 C.3    75  LEU75       0.1728
     20  C         36.5140   13.3290    5.2540 C.2    75  LEU75       0.2616
     21  O         37.6550   13.1020    5.6610 O.2    75  LEU75      -0.2715
     22  CB        35.0320   11.4240    5.9550 C.3    75  LEU75       0.0311
     23  CG        34.0900   10.7480    6.9590 C.3    75  LEU75       0.0022
     24  CD1       33.7020    9.3620    6.4730 C.3    75  LEU75       0.0001
     25  CD2       34.7050   10.6730    8.3540 C.3    75  LEU75       0.0001
     26  N         36.2590   13.9260    4.0900 N.am   76  LYS76      -0.1977
     27  CA        37.3150   14.3770    3.1830 C.3    76  LYS76       0.1596
     28  C         38.0170   15.6390    3.6850 C.2    76  LYS76       0.2287
     29  O         39.2030   15.8430    3.4100 O.2    76  LYS76      -0.2864
     30  CB        36.7530   14.6190    1.7790 C.3    76  LYS76       0.0298
     31  CG        36.2000   13.3740    1.0900 C.3    76  LYS76       0.0038
     32  CD        35.7560   13.6610   -0.3440 C.3    76  LYS76       0.0206
     33  CE        34.4580   14.4680   -0.4060 C.3    76  LYS76       0.1093
     34  NZ        33.2810   13.7070    0.1020 N.3    76  LYS76      -0.1314
     35  N         36.6020   20.6700   -2.1160 N.3   104  GLN104     -0.1245
     36  CA        36.0680   19.8550   -3.2090 C.3   104  GLN104      0.1566
     37  C         34.7490   20.3940   -3.7750 C.2   104  GLN104      0.2260
     38  O         34.4530   20.1970   -4.9560 O.2   104  GLN104     -0.2867
     39  CB        35.8790   18.4020   -2.7550 C.3   104  GLN104      0.0367
     40  CG        37.1700   17.6590   -2.3950 C.3   104  GLN104      0.0905
     41  CD        37.6870   17.9760   -0.9950 C.2   104  GLN104      0.2608
     42  OE1       36.9790   18.5540   -0.1670 O.2   104  GLN104     -0.2717
     43  NE2       38.9290   17.5930   -0.7270 N.am  104  GLN104     -0.0878
     44  N         27.9750   21.6840    4.9170 N.3   125  HIS125     -0.1241
     45  CA        28.9980   22.2540    4.0440 C.3   125  HIS125      0.1621
     46  C         28.4840   22.4950    2.6290 C.2   125  HIS125      0.2264
     47  O         27.6920   21.7080    2.1030 O.2   125  HIS125     -0.2867
     48  CB        30.2290   21.3430    3.9990 C.3   125  HIS125      0.0745
     49  CG        29.9410   19.9570    3.5110 C.ar  125  HIS125      0.0817
     50  ND1       29.9780   19.6170    2.1760 N.ar  125  HIS125     -0.2268
     51  CD2       29.6090   18.8260    4.1780 C.ar  125  HIS125      0.1154
     52  CE1       29.6820   18.3370    2.0420 C.ar  125  HIS125      0.1986
     53  NE2       29.4540   17.8330    3.2420 N.ar  125  HIS125     -0.2212
     54  N         24.8750   17.9680    2.6040 N.3   143  GLY143     -0.1210
     55  CA        25.8920   18.6980    1.8470 C.3   143  GLY143      0.1956
     56  C         25.4760   19.1070    0.4440 C.2   143  GLY143      0.2611
     57  O         24.7340   18.3890   -0.2250 O.2   143  GLY143     -0.2717
     58  N         25.9590   20.2740    0.0140 N.am  144  HIS144     -0.1975
     59  CA        25.7710   20.7930   -1.3550 C.3   144  HIS144      0.1656
     60  C         24.3090   21.0830   -1.7390 C.2   144  HIS144      0.2291
     61  O         23.9410   20.9830   -2.9130 O.2   144  HIS144     -0.2864
     62  CB        26.4200   19.8640   -2.3970 C.3   144  HIS144      0.0771
     63  CG        27.7580   19.3280   -1.9890 C.ar  144  HIS144      0.0820
     64  ND1       28.9290   20.0320   -2.1690 N.ar  144  HIS144     -0.2267
     65  CD2       28.1110   18.1520   -1.4170 C.ar  144  HIS144      0.1154
     66  CE1       29.9450   19.3160   -1.7200 C.ar  144  HIS144      0.1986
     67  NE2       29.4750   18.1710   -1.2590 N.ar  144  HIS144     -0.2212
     68  N         21.6260   15.1210   -0.0260 N.3   161  GLN161     -0.1231
     69  CA        22.7490   15.8450   -0.6260 C.3   161  GLN161      0.1698
     70  C         22.5630   16.1720   -2.1100 C.2   161  GLN161      0.2592
     71  O         21.9420   15.4050   -2.8500 O.2   161  GLN161     -0.2718
     72  CB        24.0750   15.1070   -0.3830 C.3   161  GLN161      0.0381
     73  CG        24.1390   13.6780   -0.9180 C.3   161  GLN161      0.0905
     74  CD        25.3310   12.9040   -0.3780 C.2   161  GLN161      0.2608
     75  OE1       25.6040   12.9130    0.8240 O.2   161  GLN161     -0.2717
     76  NE2       26.0420   12.2200   -1.2680 N.am  161  GLN161     -0.0878
     77  N         23.0930   17.3270   -2.5150 N.am  162  PHE162     -0.1976
     78  CA        23.0460   17.8240   -3.9010 C.3   162  PHE162      0.1639
     79  C         21.6690   18.3120   -4.3850 C.2   162  PHE162      0.2290
     80  O         21.5670   18.9100   -5.4600 O.2   162  PHE162     -0.2864
     81  CB        23.6400   16.8060   -4.8900 C.3   162  PHE162      0.0560
     82  CG        25.1060   16.5440   -4.6870 C.ar  162  PHE162     -0.0200
     83  CD1       26.0590   17.4510   -5.1460 C.ar  162  PHE162     -0.0042
     84  CD2       25.5360   15.3870   -4.0440 C.ar  162  PHE162     -0.0042
     85  CE1       27.4190   17.2120   -4.9600 C.ar  162  PHE162     -0.0003
     86  CE2       26.8940   15.1370   -3.8550 C.ar  162  PHE162     -0.0003
     87  CZ        27.8370   16.0520   -4.3140 C.ar  162  PHE162     -0.0000
@<TRIPOS>BOND
     1    80    79    2
     2    83    85   ar
     3    83    82   ar
     4    85    87   ar
     5    38    37    2
     6    81    82    1
     7    81    78    1
     8    82    84   ar
     9    79    78    1
    10    87    86   ar
    11    84    86   ar
    12    78    77    1
    13    37    36    1
    14    36    39    1
    15    36    35    1
    16    61    60    2
    17    71    70    2
    18    39    40    1
    19    77    70   am
    20    62    63    1
    21    62    59    1
    22    40    41    1
    23    64    63   ar
    24    64    66   ar
    25    70    69    1
    26    63    65   ar
    27    60    59    1
    28    66    67   ar
    29    65    67   ar
    30    59    58    1
    31    76    74   am
    32    41    43   am
    33    41    42    2
    34    73    72    1
    35    73    74    1
    36    69    72    1
    37    69    68    1
    38    33    32    1
    39    33    34    1
    40    74    75    2
    41    32    31    1
    42    57    56    2
    43    58    56   am
    44    56    55    1
    45    31    30    1
    46    30    27    1
    47    55    54    1
    48    17    15   ar
    49    52    50   ar
    50    52    53   ar
    51    47    46    2
    52    50    49   ar
    53    46    45    1
    54    15    16   ar
    55    15    14    1
    56    27    28    1
    57    27    26    1
    58    53    51   ar
    59    29    28    2
    60    49    48    1
    61    49    51   ar
    62    48    45    1
    63    45    44    1
    64    26    20   am
    65    14    11    1
    66    20    21    2
    67    20    19    1
    68    11    12    1
    69    11    10    1
    70    18    12   am
    71    18    19    1
    72    22    19    1
    73    22    23    1
    74    12    13    2
    75    24    23    1
    76    10     3   am
    77    23    25    1
    78     4     3    2
    79     3     2    1
    80     1     2    1
    81     2     5    1
    82     5     6    1
    83     9     7   am
    84     6     7    1
    85     7     8    2
