@<TRIPOS>MOLECULE
tmp/2jf4A00.pdb
 247 241 0 0 0
SMALL
GASTEIGER

@<TRIPOS>ATOM
      1  N         30.4370   43.6320    3.0640 N.3    25  LYS25      -0.1245
      2  CA        31.3980   43.4150    4.1360 C.3    25  LYS25       0.1561
      3  C         31.6910   41.9130    4.3310 C.2    25  LYS25       0.2260
      4  O         32.7610   41.5480    4.8030 O.2    25  LYS25      -0.2867
      5  CB        30.9030   44.0790    5.4310 C.3    25  LYS25       0.0271
      6  CG        31.9730   44.2360    6.5080 C.3    25  LYS25       0.0035
      7  CD        31.4180   44.9620    7.7520 C.3    25  LYS25       0.0206
      8  CE        32.4440   44.9970    8.8790 C.3    25  LYS25       0.1093
      9  NZ        32.5770   43.6550    9.5370 N.3    25  LYS25      -0.1314
     10  N         30.7130   46.5020   18.4290 N.3   100  PRO100     -0.2116
     11  CA        29.3600   47.0990   18.4650 C.3   100  PRO100      0.1372
     12  C         28.1820   46.1090   18.3900 C.2   100  PRO100      0.2244
     13  O         27.2280   46.2170   19.1710 O.2   100  PRO100     -0.2868
     14  CB        29.3780   48.0770   17.2790 C.3   100  PRO100      0.0268
     15  CG        30.8630   48.3900   17.0800 C.3   100  PRO100      0.0207
     16  CD        31.5210   47.0490   17.3180 C.3   100  PRO100      0.0892
     17  N         26.7030   43.1900   12.1080 N.3   103  ARG103     -0.1231
     18  CA        27.7260   43.0900   11.0780 C.3   103  ARG103      0.1694
     19  C         29.0650   43.6740   11.5150 C.2   103  ARG103      0.2592
     20  O         30.0690   43.4540   10.8600 O.2   103  ARG103     -0.2718
     21  CB        27.2480   43.7800    9.7870 C.3   103  ARG103      0.0321
     22  CG        27.1650   45.3270    9.9050 C.3   103  ARG103      0.0489
     23  CD        26.3660   45.9310    8.7650 C.3   103  ARG103      0.2205
     24  NE        27.0160   45.8280    7.4510 N.pl3 103  ARG103     -0.0865
     25  CZ        27.7840   46.7640    6.8920 C.cat 103  ARG103      0.5346
     26  NH1       28.0640   47.8840    7.5410 N.pl3 103  ARG103      0.1354
     27  NH2       28.2730   46.5770    5.6710 N.pl3 103  ARG103      0.1354
     28  N         29.0660   44.4480   12.5960 N.am  104  PHE104     -0.1976
     29  CA        30.2960   45.0170   13.1280 C.3   104  PHE104      0.1639
     30  C         30.9410   44.0410   14.1130 C.2   104  PHE104      0.2290
     31  O         30.6530   44.0620   15.3110 O.2   104  PHE104     -0.2864
     32  CB        30.0370   46.4050   13.7280 C.3   104  PHE104      0.0560
     33  CG        29.3350   47.3220   12.7800 C.ar  104  PHE104     -0.0200
     34  CD1       29.9600   47.7110   11.5800 C.ar  104  PHE104     -0.0042
     35  CD2       28.0300   47.7550   13.0390 C.ar  104  PHE104     -0.0042
     36  CE1       29.2950   48.5330   10.6630 C.ar  104  PHE104     -0.0003
     37  CE2       27.3630   48.5900   12.1330 C.ar  104  PHE104     -0.0003
     38  CZ        28.0100   48.9910   10.9430 C.ar  104  PHE104     -0.0000
     39  N         35.7690   49.2490   17.0370 N.3   108  TYR108     -0.1241
     40  CA        35.7360   50.5560   16.3720 C.3   108  TYR108      0.1605
     41  C         36.3470   51.5800   17.3040 C.2   108  TYR108      0.2264
     42  O         36.2470   51.4410   18.5310 O.2   108  TYR108     -0.2867
     43  CB        34.2940   50.9240   15.9260 C.3   108  TYR108      0.0534
     44  CG        33.9420   50.1190   14.6900 C.ar  108  TYR108     -0.0201
     45  CD1       33.5820   48.7790   14.7920 C.ar  108  TYR108     -0.0009
     46  CD2       34.0660   50.6730   13.4120 C.ar  108  TYR108     -0.0009
     47  CE1       33.3360   48.0140   13.6510 C.ar  108  TYR108      0.0417
     48  CE2       33.8070   49.9230   12.2750 C.ar  108  TYR108      0.0417
     49  CZ        33.4530   48.6010   12.3930 C.ar  108  TYR108      0.1957
     50  OH        33.2160   47.8400   11.2690 O.3   108  TYR108     -0.2866
     51  N         35.9070   55.2960   17.7120 N.3   110  TRP110     -0.1227
     52  CA        35.1020   56.1850   18.5370 C.3   110  TRP110      0.1737
     53  C         33.9870   55.5100   19.3320 C.2   110  TRP110      0.2595
     54  O         33.7330   55.9370   20.4470 O.2   110  TRP110     -0.2718
     55  CB        34.6860   57.4980   17.8420 C.3   110  TRP110      0.0564
     56  CG        33.5510   57.4680   16.8570 C.ar  110  TRP110      0.0003
     57  CD1       33.3210   56.5500   15.8760 C.ar  110  TRP110      0.0946
     58  CD2       32.5320   58.4710   16.7060 C.ar  110  TRP110      0.0152
     59  NE1       32.2030   56.9020   15.1370 N.ar  110  TRP110     -0.2442
     60  CE2       31.7080   58.0820   15.6270 C.ar  110  TRP110      0.0810
     61  CE3       32.2240   59.6460   17.3950 C.ar  110  TRP110      0.0012
     62  CZ2       30.5890   58.8240   15.2290 C.ar  110  TRP110      0.0191
     63  CZ3       31.0910   60.3800   16.9960 C.ar  110  TRP110      0.0001
     64  CH2       30.3010   59.9640   15.9210 C.ar  110  TRP110      0.0015
     65  N         33.3840   54.4460   18.7900 N.am  111  ASP111     -0.1974
     66  CA        32.4360   53.5890   19.5490 C.3   111  ASP111      0.1709
     67  C         32.9620   53.1440   20.9020 C.2   111  ASP111      0.2293
     68  O         32.2090   53.1340   21.8810 O.2   111  ASP111     -0.2864
     69  CB        32.0670   52.2980   18.7970 C.3   111  ASP111      0.1436
     70  CG        31.3930   52.5520   17.4610 C.2   111  ASP111      0.3671
     71  OD1       30.2490   52.0330   17.2400 O.co2 111  ASP111     -0.2456
     72  OD2       32.0240   53.2440   16.6320 O.co2 111  ASP111     -0.2456
     73  N         40.3180   52.9140   11.8210 N.3   145  ASN145     -0.1240
     74  CA        38.8440   52.9790   11.9390 C.3   145  ASN145      0.1653
     75  C         38.3330   51.7990   12.7670 C.2   145  ASN145      0.2266
     76  O         37.4600   51.9670   13.6230 O.2   145  ASN145     -0.2867
     77  CB        38.2560   52.9970   10.5180 C.3   145  ASN145      0.1155
     78  CG        36.7500   53.2170   10.4580 C.2   145  ASN145      0.2627
     79  OD1       35.9760   52.7970   11.3190 O.2   145  ASN145     -0.2716
     80  ND2       36.3320   53.8410    9.3930 N.am  145  ASN145     -0.0877
     81  N         40.7370   49.0750    7.0830 N.3   151  TYR151     -0.1241
     82  CA        40.5750   50.2690    7.9190 C.3   151  TYR151      0.1605
     83  C         41.9170   50.9200    8.2480 C.2   151  TYR151      0.2264
     84  O         41.9580   51.9510    8.9000 O.2   151  TYR151     -0.2867
     85  CB        39.8970   49.9160    9.2380 C.3   151  TYR151      0.0534
     86  CG        38.4300   49.5810    9.1340 C.ar  151  TYR151     -0.0201
     87  CD1       37.6180   50.1770    8.1510 C.ar  151  TYR151     -0.0009
     88  CD2       37.8370   48.6810   10.0400 C.ar  151  TYR151     -0.0009
     89  CE1       36.2620   49.8650    8.0550 C.ar  151  TYR151      0.0417
     90  CE2       36.4780   48.3800    9.9530 C.ar  151  TYR151      0.0417
     91  CZ        35.7020   48.9720    8.9590 C.ar  151  TYR151      0.1957
     92  OH        34.3600   48.6750    8.8910 O.3   151  TYR151     -0.2866
     93  N         42.9130   54.8110    7.3080 N.3   154  ARG154     -0.1245
     94  CA        42.2230   55.9100    7.9770 C.3   154  ARG154      0.1563
     95  C         42.1030   55.7220    9.4890 C.2   154  ARG154      0.2260
     96  O         42.4440   54.6720   10.0380 O.2   154  ARG154     -0.2867
     97  CB        40.8360   56.1480    7.3550 C.3   154  ARG154      0.0307
     98  CG        39.9030   54.9410    7.3490 C.3   154  ARG154      0.0489
     99  CD        38.5190   55.4090    6.8610 C.3   154  ARG154      0.2205
    100  NE        37.5450   54.3320    6.8010 N.pl3 154  ARG154     -0.0865
    101  CZ        37.4030   53.4740    5.7910 C.cat 154  ARG154      0.5346
    102  NH1       38.1750   53.5580    4.7130 N.pl3 154  ARG154      0.1354
    103  NH2       36.4650   52.5280    5.8610 N.pl3 154  ARG154      0.1354
    104  N         39.5270   57.5270   12.9160 N.3   156  GLN156     -0.1245
    105  CA        38.1430   57.9000   13.2260 C.3   156  GLN156      0.1566
    106  C         38.2030   59.1370   14.1630 C.2   156  GLN156      0.2260
    107  O         39.3040   59.6070   14.4650 O.2   156  GLN156     -0.2867
    108  CB        37.3490   56.7160   13.8260 C.3   156  GLN156      0.0367
    109  CG        36.2190   56.1870   12.9160 C.3   156  GLN156      0.0905
    110  CD        35.2830   55.2220   13.6450 C.2   156  GLN156      0.2608
    111  OE1       35.6360   54.6470   14.6920 O.2   156  GLN156     -0.2717
    112  NE2       34.0910   55.0310   13.0920 N.am  156  GLN156     -0.0878
    113  N         35.9680   51.4830   -1.2090 N.3   223  ARG223     -0.1245
    114  CA        36.1410   50.7700    0.0730 C.3   223  ARG223      0.1563
    115  C         35.8620   49.2670   -0.1600 C.2   223  ARG223      0.2260
    116  O         34.7950   48.9320   -0.6500 O.2   223  ARG223     -0.2867
    117  CB        35.1690   51.2970    1.1400 C.3   223  ARG223      0.0307
    118  CG        35.4370   52.7100    1.6470 C.3   223  ARG223      0.0489
    119  CD        34.2550   53.2210    2.5000 C.3   223  ARG223      0.2205
    120  NE        33.0200   53.3500    1.7190 N.pl3 223  ARG223     -0.0865
    121  CZ        31.7830   53.2910    2.2170 C.cat 223  ARG223      0.5346
    122  NH1       31.5840   53.1010    3.5140 N.pl3 223  ARG223      0.1354
    123  NH2       30.7350   53.4320    1.4090 N.pl3 223  ARG223      0.1354
    124  N         34.9130   47.0500    1.8250 N.3   225  GLU225     -0.1231
    125  CA        33.7270   46.6620    2.5960 C.3   225  GLU225      0.1699
    126  C         32.4010   47.2530    2.0320 C.2   225  GLU225      0.2592
    127  O         31.3000   46.9060    2.4900 O.2   225  GLU225     -0.2718
    128  CB        33.9400   46.9440    4.1180 C.3   225  GLU225      0.0402
    129  CG        33.7990   48.3860    4.5630 C.3   225  GLU225      0.1161
    130  CD        35.0080   49.2740    4.2240 C.2   225  GLU225      0.3649
    131  OE1       35.9740   48.8320    3.5590 O.co2 225  GLU225     -0.2457
    132  OE2       34.9890   50.4420    4.6370 O.co2 225  GLU225     -0.2457
    133  N         32.5220   48.1400    1.0480 N.am  226  SER226     -0.1952
    134  CA        31.3520   48.7050    0.3660 C.3   226  SER226      0.1924
    135  C         31.6700   48.8760   -1.1030 C.2   226  SER226      0.2314
    136  O         31.3790   49.9120   -1.6790 O.2   226  SER226     -0.2863
    137  CB        30.9580   50.0580    0.9550 C.3   226  SER226      0.2116
    138  OG        30.9550   50.0230    2.3730 O.3   226  SER226     -0.2180
    139  N         33.8950   58.3380    6.0070 N.3   253  ALA253     -0.1245
    140  CA        34.0230   57.1570    6.8830 C.3   253  ALA253      0.1562
    141  C         35.0250   57.3880    8.0460 C.2   253  ALA253      0.2260
    142  O         34.7320   57.0310    9.1800 O.2   253  ALA253     -0.2867
    143  CB        34.3720   55.9300    6.0770 C.3   253  ALA253      0.0290
    144  N         33.3790   59.3210   10.9780 N.3   256  GLY256     -0.1225
    145  CA        32.3380   58.6800   11.7690 C.3   256  GLY256      0.1811
    146  C         30.9470   58.9490   11.2170 C.2   256  GLY256      0.2280
    147  O         30.0240   58.1690   11.4440 O.2   256  GLY256     -0.2866
    148  N         29.4750   58.6500    8.2930 N.3   258  ASP258     -0.1239
    149  CA        29.1830   58.0050    7.0000 C.3   258  ASP258      0.1674
    150  C         27.7350   57.4760    6.9290 C.2   258  ASP258      0.2266
    151  O         27.4480   56.4260    7.5130 O.2   258  ASP258     -0.2867
    152  CB        30.1920   56.8590    6.7240 C.3   258  ASP258      0.1410
    153  CG        30.2630   55.8370    7.8560 C.2   258  ASP258      0.3668
    154  OD1       30.5890   56.2120    9.0050 O.co2 258  ASP258     -0.2456
    155  OD2       30.0050   54.6350    7.5960 O.co2 258  ASP258     -0.2456
    156  N         22.1130   58.0560    7.1030 N.3   387  GLN387     -0.1231
    157  CA        21.8920   57.7460    8.5230 C.3   387  GLN387      0.1698
    158  C         22.3440   58.8170    9.5020 C.2   387  GLN387      0.2592
    159  O         21.7730   58.9180   10.5950 O.2   387  GLN387     -0.2718
    160  CB        22.4710   56.3750    8.8970 C.3   387  GLN387      0.0381
    161  CG        23.9730   56.2750    8.8470 C.3   387  GLN387      0.0905
    162  CD        24.4740   54.9230    9.3100 C.2   387  GLN387      0.2608
    163  OE1       23.7090   54.1240    9.8350 O.2   387  GLN387     -0.2717
    164  NE2       25.7680   54.6580    9.1190 N.am  387  GLN387     -0.0878
    165  N         23.3570   59.6150    9.1310 N.am  388  TRP388     -0.1976
    166  CA        23.8070   60.7160    9.9930 C.3   388  TRP388      0.1640
    167  C         23.0980   62.0170    9.6070 C.2   388  TRP388      0.2290
    168  O         23.7150   63.0100    9.1840 O.2   388  TRP388     -0.2864
    169  CB        25.3560   60.8460   10.0230 C.3   388  TRP388      0.0576
    170  CG        26.0030   59.6740   10.7140 C.ar  388  TRP388      0.0006
    171  CD1       26.3630   58.4840   10.1400 C.ar  388  TRP388      0.0946
    172  CD2       26.3280   59.5580   12.1140 C.ar  388  TRP388      0.0152
    173  NE1       26.8950   57.6370   11.0950 N.ar  388  TRP388     -0.2442
    174  CE2       26.8870   58.2730   12.3090 C.ar  388  TRP388      0.0810
    175  CE3       26.1900   60.4090   13.2160 C.ar  388  TRP388      0.0012
    176  CZ2       27.3170   57.8230   13.5580 C.ar  388  TRP388      0.0191
    177  CZ3       26.6260   59.9610   14.4610 C.ar  388  TRP388      0.0001
    178  CH2       27.1760   58.6740   14.6210 C.ar  388  TRP388      0.0015
    179  N         21.6110   59.4610   17.5450 N.3   394  TRP394     -0.1241
    180  CA        22.7270   58.5610   17.8210 C.3   394  TRP394      0.1605
    181  C         23.1980   58.7920   19.2280 C.2   394  TRP394      0.2264
    182  O         23.4890   59.9300   19.5770 O.2   394  TRP394     -0.2867
    183  CB        23.8710   58.8750   16.8670 C.3   394  TRP394      0.0550
    184  CG        23.6010   58.4860   15.4510 C.ar  394  TRP394      0.0003
    185  CD1       22.9450   59.2210   14.5110 C.ar  394  TRP394      0.0946
    186  CD2       23.9930   57.2740   14.8110 C.ar  394  TRP394      0.0152
    187  NE1       22.9110   58.5450   13.3190 N.ar  394  TRP394     -0.2442
    188  CE2       23.5470   57.3410   13.4800 C.ar  394  TRP394      0.0810
    189  CE3       24.6890   56.1300   15.2360 C.ar  394  TRP394      0.0012
    190  CZ2       23.7850   56.3140   12.5550 C.ar  394  TRP394      0.0191
    191  CZ3       24.9260   55.1230   14.3280 C.ar  394  TRP394      0.0001
    192  CH2       24.4800   55.2220   12.9940 C.ar  394  TRP394      0.0015
    193  N         21.3090   50.4920   17.0290 N.3   436  GLU436     -0.1245
    194  CA        22.4240   51.3760   16.6260 C.3   436  GLU436      0.1567
    195  C         22.0830   52.8750   16.6770 C.2   436  GLU436      0.2260
    196  O         22.8720   53.7200   17.1410 O.2   436  GLU436     -0.2867
    197  CB        22.8580   50.9260   15.2140 C.3   436  GLU436      0.0388
    198  CG        23.9260   51.7260   14.5210 C.3   436  GLU436      0.1160
    199  CD        24.1080   51.2870   13.0560 C.2   436  GLU436      0.3649
    200  OE1       25.2120   51.5260   12.5160 O.co2 436  GLU436     -0.2457
    201  OE2       23.1680   50.6980   12.4450 O.co2 436  GLU436     -0.2457
    202  N         23.5080   52.7170    3.6880 N.3   451  GLU451     -0.1231
    203  CA        23.8120   51.5740    2.8280 C.3   451  GLU451      0.1699
    204  C         23.6590   50.1980    3.4740 C.2   451  GLU451      0.2592
    205  O         23.8790   49.1800    2.8160 O.2   451  GLU451     -0.2718
    206  CB        25.2400   51.7280    2.2590 C.3   451  GLU451      0.0402
    207  CG        26.2850   52.0170    3.3360 C.3   451  GLU451      0.1161
    208  CD        27.7200   52.1010    2.8070 C.2   451  GLU451      0.3649
    209  OE1       27.9440   52.4960    1.6270 O.co2 451  GLU451     -0.2457
    210  OE2       28.6270   51.7840    3.6000 O.co2 451  GLU451     -0.2457
    211  N         23.3200   50.1580    4.7590 N.am  452  TYR452     -0.1976
    212  CA        23.1060   48.8880    5.4380 C.3   452  TYR452      0.1639
    213  C         21.8990   48.9700    6.4150 C.2   452  TYR452      0.2290
    214  O         21.5090   50.0610    6.8290 O.2   452  TYR452     -0.2864
    215  CB        24.4200   48.4010    6.0960 C.3   452  TYR452      0.0560
    216  CG        24.9210   49.3060    7.1980 C.ar  452  TYR452     -0.0198
    217  CD1       24.3490   49.2530    8.4730 C.ar  452  TYR452     -0.0009
    218  CD2       25.9340   50.2340    6.9650 C.ar  452  TYR452     -0.0009
    219  CE1       24.7640   50.0890    9.4790 C.ar  452  TYR452      0.0417
    220  CE2       26.3720   51.0890    7.9850 C.ar  452  TYR452      0.0417
    221  CZ        25.7820   50.9900    9.2410 C.ar  452  TYR452      0.1957
    222  OH        26.1680   51.8170   10.2620 O.3   452  TYR452     -0.2866
    223  N         23.7090   47.3820   21.4690 N.3   458  PHE458     -0.1241
    224  CA        24.6380   47.8880   20.4720 C.3   458  PHE458      0.1605
    225  C         25.6060   48.7490   21.2700 C.2   458  PHE458      0.2264
    226  O         25.1710   49.6330   22.0340 O.2   458  PHE458     -0.2867
    227  CB        23.9250   48.7080   19.3780 C.3   458  PHE458      0.0534
    228  CG        24.8240   49.0580   18.2220 C.ar  458  PHE458     -0.0203
    229  CD1       25.0170   48.1580   17.1780 C.ar  458  PHE458     -0.0042
    230  CD2       25.5250   50.2590   18.2040 C.ar  458  PHE458     -0.0042
    231  CE1       25.8530   48.4630   16.1210 C.ar  458  PHE458     -0.0003
    232  CE2       26.3830   50.5710   17.1370 C.ar  458  PHE458     -0.0003
    233  CZ        26.5500   49.6580   16.0970 C.ar  458  PHE458     -0.0000
    234  N         27.7270   51.4610   21.8450 N.3   460  TRP460     -0.1241
    235  CA        27.6460   52.8180   22.3730 C.3   460  TRP460      0.1605
    236  C         26.2480   53.2090   22.8480 C.2   460  TRP460      0.2264
    237  O         26.1180   54.0870   23.6930 O.2   460  TRP460     -0.2867
    238  CB        28.2230   53.8740   21.4090 C.3   460  TRP460      0.0550
    239  CG        27.6160   54.0210   19.9990 C.ar  460  TRP460      0.0003
    240  CD1       26.3720   53.5970   19.5440 C.ar  460  TRP460      0.0946
    241  CD2       28.2380   54.6850   18.8880 C.ar  460  TRP460      0.0152
    242  NE1       26.2070   53.9530   18.2190 N.ar  460  TRP460     -0.2442
    243  CE2       27.3360   54.6140   17.7920 C.ar  460  TRP460      0.0810
    244  CE3       29.4810   55.3300   18.7100 C.ar  460  TRP460      0.0012
    245  CZ2       27.6470   55.1560   16.5340 C.ar  460  TRP460      0.0191
    246  CZ3       29.7890   55.8680   17.4580 C.ar  460  TRP460      0.0001
    247  CH2       28.8740   55.7720   16.3850 C.ar  460  TRP460      0.0015
@<TRIPOS>BOND
     1   136   135    2
     2   113   114    1
     3   135   134    1
     4   116   115    2
     5   115   114    1
     6   114   117    1
     7   134   137    1
     8   134   133    1
     9   137   138    1
    10   133   126   am
    11   117   118    1
    12   123   121    1
    13   209   208   ar
    14   118   119    1
    15   120   121    2
    16   120   119    1
    17   124   125    1
    18   126   127    2
    19   126   125    1
    20   121   122    1
    21   206   203    1
    22   206   207    1
    23   125   128    1
    24   208   207    1
    25   208   210   ar
    26   205   204    2
    27   203   204    1
    28   203   202    1
    29     1     2    1
    30   204   211   am
    31   131   130   ar
    32   128   129    1
    33     2     3    1
    34     2     5    1
    35   130   129    1
    36   130   132   ar
    37     3     4    2
    38   102   101    1
    39   211   212    1
    40     5     6    1
    41   212   215    1
    42   212   213    1
    43    27    25    1
    44   101   103    1
    45   101   100    2
    46   139   140    1
    47   143   140    1
    48   215   216    1
    49   213   214    2
    50     6     7    1
    51   152   149    1
    52   152   153    1
    53   100    99    1
    54    99    98    1
    55   140   141    1
    56    25    24    2
    57    25    26    1
    58   150   149    1
    59   150   151    2
    60   218   216   ar
    61   218   220   ar
    62   149   148    1
    63    81    82    1
    64   156   157    1
    65   216   217   ar
    66    93    94    1
    67    98    97    1
    68    97    94    1
    69    24    23    1
    70   155   153   ar
    71     7     8    1
    72   153   154   ar
    73    82    83    1
    74    82    85    1
    75    94    95    1
    76   220   221   ar
    77   141   142    2
    78    89    87   ar
    79    89    91   ar
    80    87    86   ar
    81    83    84    2
    82   217   219   ar
    83   157   160    1
    84   157   158    1
    85    23    22    1
    86   161   160    1
    87   161   162    1
    88     8     9    1
    89    92    91    1
    90    91    90   ar
    91   164   162   am
    92   165   158   am
    93   165   166    1
    94    86    85    1
    95    86    88   ar
    96   168   167    2
    97   221   219   ar
    98   221   222    1
    99   162   163    2
   100    80    78   am
   101    95    96    2
   102   158   159    2
   103   167   166    1
   104    21    22    1
   105    21    18    1
   106    90    88   ar
   107   166   169    1
   108   169   170    1
   109   171   170   ar
   110   171   173   ar
   111    78    77    1
   112    78    79    2
   113    77    74    1
   114    36    38   ar
   115    36    34   ar
   116   170   172   ar
   117    20    19    2
   118    38    37   ar
   119   144   145    1
   120    18    19    1
   121    18    17    1
   122   173   174   ar
   123   146   147    2
   124   146   145    1
   125    50    49    1
   126    19    28   am
   127    34    33   ar
   128    73    74    1
   129    74    75    1
   130   172   174   ar
   131   172   175   ar
   132    37    35   ar
   133    48    49   ar
   134    48    46   ar
   135   174   176   ar
   136    49    47   ar
   137   201   199   ar
   138   200   199   ar
   139   190   192   ar
   140   190   188   ar
   141    28    29    1
   142    75    76    2
   143    33    35   ar
   144    33    32    1
   145   104   105    1
   146   109   110    1
   147   109   108    1
   148   192   191   ar
   149   199   198    1
   150   112   110   am
   151    29    32    1
   152    29    30    1
   153   175   177   ar
   154   105   108    1
   155   105   106    1
   156   187   188   ar
   157   187   185   ar
   158    46    44   ar
   159   188   186   ar
   160   176   178   ar
   161   110   111    2
   162    47    45   ar
   163    30    31    2
   164   106   107    2
   165   191   189   ar
   166   177   178   ar
   167   185   184   ar
   168   198   197    1
   169    44    45   ar
   170    44    43    1
   171   186   189   ar
   172   186   184   ar
   173    59    60   ar
   174    59    57   ar
   175   197   194    1
   176    62    60   ar
   177    62    64   ar
   178   184   183    1
   179    60    58   ar
   180    57    56   ar
   181    64    63   ar
   182    43    40    1
   183   233   231   ar
   184   233   232   ar
   185   231   229   ar
   186    40    39    1
   187    40    41    1
   188   247   245   ar
   189   247   246   ar
   190   245   243   ar
   191   194   195    1
   192   194   193    1
   193    72    70   ar
   194   195   196    2
   195    58    56   ar
   196    58    61   ar
   197    56    55    1
   198   183   180    1
   199    63    61   ar
   200    15    14    1
   201    15    16    1
   202   232   230   ar
   203   229   228   ar
   204    71    70   ar
   205    14    11    1
   206    41    42    2
   207    16    10    1
   208   246   244   ar
   209    70    69    1
   210   179   180    1
   211    51    52    1
   212   243   242   ar
   213   243   241   ar
   214   180   181    1
   215    55    52    1
   216   230   228   ar
   217   242   240   ar
   218   228   227    1
   219    12    11    1
   220    12    13    2
   221    10    11    1
   222    52    53    1
   223   244   241   ar
   224    65    53   am
   225    65    66    1
   226    69    66    1
   227   241   239   ar
   228   181   182    2
   229    53    54    2
   230   227   224    1
   231   240   239   ar
   232    66    67    1
   233   239   238    1
   234   224   225    1
   235   224   223    1
   236    67    68    2
   237   225   226    2
   238   238   235    1
   239   234   235    1
   240   235   236    1
   241   236   237    2
