@<TRIPOS>MOLECULE
tmp/2jf6B00.pdb
 246 242 0 0 0
SMALL
GASTEIGER

@<TRIPOS>ATOM
      1  N         22.8500  101.7780  -20.7110 N.3    21  GLN21      -0.1245
      2  CA        22.0370  102.9810  -20.6990 C.3    21  GLN21       0.1566
      3  C         20.5590  102.6910  -20.6100 C.2    21  GLN21       0.2260
      4  O         19.7690  103.5850  -20.3590 O.2    21  GLN21      -0.2867
      5  CB        22.2560  103.7660  -21.9790 C.3    21  GLN21       0.0367
      6  CG        23.5890  104.4670  -22.1280 C.3    21  GLN21       0.0905
      7  CD        23.6670  105.0920  -23.4910 C.2    21  GLN21       0.2608
      8  OE1       23.6750  106.3190  -23.6390 O.2    21  GLN21      -0.2717
      9  NE2       23.6560  104.2470  -24.5140 N.am   21  GLN21      -0.0878
     10  N         29.7630   98.0000  -25.9080 N.3   125  HIS125     -0.1226
     11  CA        29.4180   99.4110  -25.8000 C.3   125  HIS125      0.1752
     12  C         29.8480   99.8370  -24.3950 C.2   125  HIS125      0.2596
     13  O         29.0290  100.2960  -23.5820 O.2   125  HIS125     -0.2718
     14  CB        27.9050   99.6110  -26.0070 C.3   125  HIS125      0.0759
     15  CG        27.4980  101.0150  -26.3630 C.ar  125  HIS125      0.0818
     16  ND1       26.5540  101.2920  -27.3310 N.ar  125  HIS125     -0.2268
     17  CD2       27.8920  102.2160  -25.8760 C.ar  125  HIS125      0.1154
     18  CE1       26.3900  102.6000  -27.4270 C.ar  125  HIS125      0.1986
     19  NE2       27.1910  103.1830  -26.5580 N.ar  125  HIS125     -0.2212
     20  N         31.1350   99.6270  -24.1230 N.am  126  TRP126     -0.1976
     21  CA        31.8550  100.1840  -22.9800 C.3   126  TRP126      0.1640
     22  C         31.5690   99.5210  -21.6620 C.2   126  TRP126      0.2290
     23  O         32.3020   99.7590  -20.6850 O.2   126  TRP126     -0.2864
     24  CB        31.6920  101.7100  -22.8470 C.3   126  TRP126      0.0576
     25  CG        31.6360  102.3980  -24.1340 C.ar  126  TRP126      0.0006
     26  CD1       32.0350  101.9030  -25.3410 C.ar  126  TRP126      0.0946
     27  CD2       31.1580  103.7180  -24.3800 C.ar  126  TRP126      0.0152
     28  NE1       31.8200  102.8230  -26.3300 N.ar  126  TRP126     -0.2442
     29  CE2       31.2850  103.9520  -25.7780 C.ar  126  TRP126      0.0810
     30  CE3       30.6270  104.7240  -23.5650 C.ar  126  TRP126      0.0012
     31  CZ2       30.9050  105.1480  -26.3840 C.ar  126  TRP126      0.0191
     32  CZ3       30.2320  105.9150  -24.1640 C.ar  126  TRP126      0.0001
     33  CH2       30.3730  106.1120  -25.5770 C.ar  126  TRP126      0.0015
     34  N         31.3260   99.7510  -30.3440 N.3   170  ASN170     -0.1225
     35  CA        30.6850  101.0270  -30.5460 C.3   170  ASN170      0.1785
     36  C         31.5820  102.1660  -30.0980 C.2   170  ASN170      0.2597
     37  O         31.8580  102.3160  -28.9210 O.2   170  ASN170     -0.2718
     38  CB        29.3590  101.0930  -29.8230 C.3   170  ASN170      0.1169
     39  CG        28.6470  102.3930  -30.0580 C.2   170  ASN170      0.2627
     40  OD1       27.4570  102.4130  -30.3550 O.2   170  ASN170     -0.2716
     41  ND2       29.3630  103.4890  -29.9240 N.am  170  ASN170     -0.0877
     42  N         32.0400  102.9620  -31.0570 N.am  171  GLU171     -0.1979
     43  CA        32.8180  104.1660  -30.7850 C.3   171  GLU171      0.1602
     44  C         34.0460  103.9230  -29.9340 C.2   171  GLU171      0.2287
     45  O         34.2930  104.6110  -28.9480 O.2   171  GLU171     -0.2864
     46  CB        31.9410  105.2600  -30.1810 C.3   171  GLU171      0.0415
     47  CG        31.2060  106.0750  -31.2300 C.3   171  GLU171      0.1163
     48  CD        30.2280  107.0350  -30.6210 C.2   171  GLU171      0.3649
     49  OE1       29.5500  107.8000  -31.3190 O.co2 171  GLU171     -0.2457
     50  OE2       30.1390  107.0010  -29.3040 O.co2 171  GLU171     -0.2457
     51  N         36.8500  104.9270  -30.3720 N.3   173  HIS173     -0.1226
     52  CA        37.5740  106.1880  -30.1910 C.3   173  HIS173      0.1752
     53  C         37.1670  106.7980  -28.8670 C.2   173  HIS173      0.2596
     54  O         38.0190  107.0770  -28.0340 O.2   173  HIS173     -0.2718
     55  CB        37.3540  107.2070  -31.3090 C.3   173  HIS173      0.0759
     56  CG        37.8100  108.5900  -30.9380 C.ar  173  HIS173      0.0818
     57  ND1       36.9720  109.5290  -30.3760 N.ar  173  HIS173     -0.2268
     58  CD2       39.0300  109.1750  -31.0030 C.ar  173  HIS173      0.1154
     59  CE1       37.6500  110.6380  -30.1340 C.ar  173  HIS173      0.1986
     60  NE2       38.9020  110.4460  -30.4990 N.ar  173  HIS173     -0.2212
     61  N         35.8650  106.9810  -28.6750 N.am  174  THR174     -0.1953
     62  CA        35.3290  107.5360  -27.4420 C.3   174  THR174      0.1897
     63  C         35.7550  106.7090  -26.2280 C.2   174  THR174      0.2313
     64  O         36.3430  107.2270  -25.2580 O.2   174  THR174     -0.2863
     65  CB        33.8150  107.5470  -27.4930 C.3   174  THR174      0.1794
     66  OG1       33.3970  108.2690  -28.6590 O.3   174  THR174     -0.2208
     67  CG2       33.2650  108.1950  -26.2500 C.3   174  THR174      0.0378
     68  N         37.9560  108.9150  -23.8240 N.3   178  ASN178     -0.1240
     69  CA        37.3050  109.4420  -22.6470 C.3   178  ASN178      0.1653
     70  C         37.7300  108.6370  -21.4240 C.2   178  ASN178      0.2266
     71  O         37.7380  109.1270  -20.2860 O.2   178  ASN178     -0.2867
     72  CB        35.7870  109.4620  -22.8380 C.3   178  ASN178      0.1155
     73  CG        35.3110  110.6570  -23.6760 C.2   178  ASN178      0.2627
     74  OD1       34.1550  111.0760  -23.6060 O.2   178  ASN178     -0.2716
     75  ND2       36.2060  111.2100  -24.4540 N.am  178  ASN178     -0.0877
     76  N         35.2200  108.7800  -18.0730 N.3   185  PHE185     -0.1241
     77  CA        34.3470  107.6750  -18.4020 C.3   185  PHE185      0.1605
     78  C         35.0750  106.4890  -17.8800 C.2   185  PHE185      0.2264
     79  O         36.2910  106.5280  -17.7870 O.2   185  PHE185     -0.2867
     80  CB        34.3000  107.4980  -19.9180 C.3   185  PHE185      0.0534
     81  CG        33.3000  108.3590  -20.6050 C.ar  185  PHE185     -0.0203
     82  CD1       32.6970  109.4310  -19.9590 C.ar  185  PHE185     -0.0042
     83  CD2       32.9630  108.1100  -21.9060 C.ar  185  PHE185     -0.0042
     84  CE1       31.7730  110.2190  -20.5960 C.ar  185  PHE185     -0.0003
     85  CE2       32.0490  108.9110  -22.5430 C.ar  185  PHE185     -0.0003
     86  CZ        31.4550  109.9640  -21.8820 C.ar  185  PHE185     -0.0000
     87  N         33.1140  106.9360  -35.0360 N.3   237  ASN237     -0.1225
     88  CA        32.5190  108.2340  -34.9990 C.3   237  ASN237      0.1785
     89  C         33.5630  109.2370  -35.3470 C.2   237  ASN237      0.2598
     90  O         34.7700  108.9590  -35.2470 O.2   237  ASN237     -0.2718
     91  CB        31.9490  108.5230  -33.5880 C.3   237  ASN237      0.1169
     92  CG        33.0260  108.5990  -32.5070 C.2   237  ASN237      0.2627
     93  OD1       33.6880  107.6080  -32.1900 O.2   237  ASN237     -0.2716
     94  ND2       33.2080  109.7880  -31.9490 N.am  237  ASN237     -0.0877
     95  N         33.0920  110.4010  -35.7660 N.am  238  SER238     -0.1938
     96  CA        33.9280  111.5710  -35.8280 C.3   238  SER238      0.2055
     97  C         33.0250  112.7560  -35.8930 C.2   238  SER238      0.2642
     98  O         31.8440  112.6160  -36.2140 O.2   238  SER238     -0.2714
     99  CB        34.8540  111.5640  -37.0430 C.3   238  SER238      0.2130
    100  OG        35.9210  112.4700  -36.8120 O.3   238  SER238     -0.2179
    101  N         33.5820  113.9140  -35.5440 N.am  239  MET239     -0.1976
    102  CA        32.9590  115.1850  -35.8560 C.3   239  MET239      0.1605
    103  C         33.4850  115.4570  -37.2170 C.2   239  MET239      0.2287
    104  O         34.4970  114.8730  -37.6090 O.2   239  MET239     -0.2864
    105  CB        33.4080  116.3040  -34.9260 C.3   239  MET239      0.0413
    106  CG        33.1750  116.0250  -33.4620 C.3   239  MET239      0.0598
    107  SD        33.6360  117.4400  -32.4650 S.3   239  MET239     -0.1393
    108  CE        35.4090  117.1420  -32.3250 C.3   239  MET239      0.0692
    109  N         41.0890  110.9030  -35.1400 N.3   261  MET261     -0.1245
    110  CA        39.8300  110.5340  -34.5040 C.3   261  MET261      0.1570
    111  C         39.2040  109.3520  -35.2500 C.2   261  MET261      0.2261
    112  O         38.6000  108.4600  -34.6340 O.2   261  MET261     -0.2867
    113  CB        38.8870  111.7500  -34.4360 C.3   261  MET261      0.0387
    114  CG        37.4750  111.4880  -33.8930 C.3   261  MET261      0.0595
    115  SD        36.6140  113.0480  -33.5120 S.3   261  MET261     -0.1393
    116  CE        35.0490  112.5190  -32.8040 C.3   261  MET261      0.0692
    117  N         27.2980  113.5700  -34.8410 N.3   309  TYR309     -0.1241
    118  CA        26.5810  114.5620  -34.0590 C.3   309  TYR309      0.1605
    119  C         26.7720  116.0050  -34.5500 C.2   309  TYR309      0.2264
    120  O         25.7830  116.7520  -34.7090 O.2   309  TYR309     -0.2867
    121  CB        26.8960  114.4010  -32.5490 C.3   309  TYR309      0.0534
    122  CG        26.2960  113.1180  -32.0250 C.ar  309  TYR309     -0.0201
    123  CD1       27.0910  112.0110  -31.7490 C.ar  309  TYR309     -0.0009
    124  CD2       24.9080  112.9890  -31.9010 C.ar  309  TYR309     -0.0009
    125  CE1       26.5160  110.8040  -31.3150 C.ar  309  TYR309      0.0417
    126  CE2       24.3190  111.8010  -31.4750 C.ar  309  TYR309      0.0417
    127  CZ        25.1180  110.7110  -31.1730 C.ar  309  TYR309      0.1957
    128  OH        24.5100  109.5440  -30.7350 O.3   309  TYR309     -0.2866
    129  N         21.6810  122.1460  -26.3740 N.3   349  TYR349     -0.1227
    130  CA        21.8340  122.2580  -24.9060 C.3   349  TYR349      0.1736
    131  C         23.2520  122.0910  -24.3110 C.2   349  TYR349      0.2596
    132  O         23.6760  122.8770  -23.4720 O.2   349  TYR349     -0.2718
    133  CB        20.8200  121.3650  -24.1750 C.3   349  TYR349      0.0548
    134  CG        21.1560  121.1560  -22.7210 C.ar  349  TYR349     -0.0200
    135  CD1       21.6660  119.9470  -22.2750 C.ar  349  TYR349     -0.0009
    136  CD2       20.9940  122.1740  -21.7890 C.ar  349  TYR349     -0.0009
    137  CE1       21.9930  119.7500  -20.9350 C.ar  349  TYR349      0.0417
    138  CE2       21.3220  121.9810  -20.4480 C.ar  349  TYR349      0.0417
    139  CZ        21.8190  120.7670  -20.0370 C.ar  349  TYR349      0.1957
    140  OH        22.1360  120.5600  -18.7160 O.3   349  TYR349     -0.2866
    141  N         23.9820  121.0720  -24.7280 N.am  350  GLY350     -0.1957
    142  CA        25.2890  120.8250  -24.1170 C.3   350  GLY350      0.1869
    143  C         26.3220  121.9450  -24.1510 C.2   350  GLY350      0.2309
    144  O         27.0560  122.1630  -23.1840 O.2   350  GLY350     -0.2863
    145  N         28.2290  121.6220  -26.7520 N.3   352  TRP352     -0.1227
    146  CA        29.0520  120.8710  -27.6970 C.3   352  TRP352      0.1737
    147  C         28.3160  120.5540  -29.0060 C.2   352  TRP352      0.2595
    148  O         28.8060  120.8860  -30.1010 O.2   352  TRP352     -0.2718
    149  CB        29.5840  119.6040  -27.0430 C.3   352  TRP352      0.0564
    150  CG        30.3520  118.6810  -27.9480 C.ar  352  TRP352      0.0003
    151  CD1       31.6810  118.7630  -28.2850 C.ar  352  TRP352      0.0946
    152  CD2       29.8510  117.5130  -28.5980 C.ar  352  TRP352      0.0152
    153  NE1       32.0290  117.7220  -29.1150 N.ar  352  TRP352     -0.2442
    154  CE2       30.9230  116.9370  -29.3140 C.ar  352  TRP352      0.0810
    155  CE3       28.5980  116.8900  -28.6450 C.ar  352  TRP352      0.0012
    156  CZ2       30.7710  115.7670  -30.0680 C.ar  352  TRP352      0.0191
    157  CZ3       28.4550  115.7240  -29.3920 C.ar  352  TRP352      0.0001
    158  CH2       29.5340  115.1790  -30.0930 C.ar  352  TRP352      0.0015
    159  N         27.1470  119.9130  -28.9190 N.am  353  GLN353     -0.1979
    160  CA        26.4110  119.6470  -30.1520 C.3   353  GLN353      0.1601
    161  C         25.8730  120.9460  -30.7500 C.2   353  GLN353      0.2287
    162  O         25.2500  121.7820  -30.0580 O.2   353  GLN353     -0.2864
    163  CB        25.3360  118.5610  -30.0240 C.3   353  GLN353      0.0394
    164  CG        24.9800  117.9370  -31.3820 C.3   353  GLN353      0.0908
    165  CD        24.0030  116.7810  -31.3040 C.2   353  GLN353      0.2608
    166  OE1       23.7790  116.0890  -32.2890 O.2   353  GLN353     -0.2717
    167  NE2       23.4220  116.5630  -30.1350 N.am  353  GLN353     -0.0878
    168  N         24.2880  106.0330  -35.6980 N.3   380  GLU380     -0.1245
    169  CA        23.8430  106.9280  -34.6470 C.3   380  GLU380      0.1567
    170  C         23.6560  108.3320  -35.1840 C.2   380  GLU380      0.2260
    171  O         24.5790  108.9310  -35.7540 O.2   380  GLU380     -0.2867
    172  CB        24.8110  106.9440  -33.4780 C.3   380  GLU380      0.0388
    173  CG        24.6530  105.7650  -32.5740 C.3   380  GLU380      0.1160
    174  CD        25.1920  105.9800  -31.1570 C.2   380  GLU380      0.3649
    175  OE1       25.7850  105.0110  -30.6180 O.co2 380  GLU380     -0.2457
    176  OE2       25.0080  107.0790  -30.5790 O.co2 380  GLU380     -0.2457
    177  N         20.5550  116.1590  -28.8200 N.3   384  VAL384     -0.1245
    178  CA        20.4070  116.2640  -27.3890 C.3   384  VAL384      0.1561
    179  C         19.2850  117.2640  -27.0530 C.2   384  VAL384      0.2260
    180  O         18.8550  118.0700  -27.9030 O.2   384  VAL384     -0.2867
    181  CB        21.7390  116.6410  -26.7150 C.3   384  VAL384      0.0252
    182  CG1       22.1510  118.0540  -27.0780 C.3   384  VAL384      0.0019
    183  CG2       21.6330  116.4750  -25.2150 C.3   384  VAL384      0.0019
    184  N         19.3980  107.9750  -32.9100 N.3   429  TRP429     -0.1241
    185  CA        19.8130  107.8850  -31.5090 C.3   429  TRP429      0.1605
    186  C         19.1210  108.9810  -30.7060 C.2   429  TRP429      0.2264
    187  O         19.2020  110.1750  -31.0690 O.2   429  TRP429     -0.2867
    188  CB        21.3330  107.9950  -31.3100 C.3   429  TRP429      0.0550
    189  CG        21.6500  107.6670  -29.9120 C.ar  429  TRP429      0.0003
    190  CD1       21.7670  108.5370  -28.8640 C.ar  429  TRP429      0.0946
    191  CD2       21.7890  106.3570  -29.3710 C.ar  429  TRP429      0.0152
    192  NE1       22.0100  107.8470  -27.7000 N.ar  429  TRP429     -0.2442
    193  CE2       22.0310  106.5040  -27.9820 C.ar  429  TRP429      0.0810
    194  CE3       21.7520  105.0650  -29.9270 C.ar  429  TRP429      0.0012
    195  CZ2       22.2460  105.3990  -27.1330 C.ar  429  TRP429      0.0191
    196  CZ3       21.9620  103.9800  -29.0970 C.ar  429  TRP429      0.0001
    197  CH2       22.2130  104.1540  -27.7020 C.ar  429  TRP429      0.0015
    198  N         22.5430  109.0300  -20.1660 N.3   436  GLU436     -0.1231
    199  CA        23.6150  109.7010  -20.9060 C.3   436  GLU436      0.1699
    200  C         24.9970  109.7300  -20.2560 C.2   436  GLU436      0.2592
    201  O         25.5300  110.7920  -19.9700 O.2   436  GLU436     -0.2718
    202  CB        23.1790  111.0990  -21.3460 C.3   436  GLU436      0.0402
    203  CG        22.9610  111.1570  -22.8660 C.3   436  GLU436      0.1161
    204  CD        23.9780  110.2820  -23.6400 C.2   436  GLU436      0.3649
    205  OE1       23.6390  109.1240  -23.9890 O.co2 436  GLU436     -0.2457
    206  OE2       25.1180  110.7390  -23.8710 O.co2 436  GLU436     -0.2457
    207  N         25.5670  108.5480  -20.0460 N.am  437  TRP437     -0.1976
    208  CA        26.9010  108.3650  -19.4590 C.3   437  TRP437      0.1640
    209  C         27.2670  109.3970  -18.3680 C.2   437  TRP437      0.2290
    210  O         26.4990  109.6050  -17.4140 O.2   437  TRP437     -0.2864
    211  CB        27.9570  108.2950  -20.5640 C.3   437  TRP437      0.0576
    212  CG        27.5770  107.3830  -21.7280 C.ar  437  TRP437      0.0006
    213  CD1       27.2430  107.7700  -23.0070 C.ar  437  TRP437      0.0946
    214  CD2       27.4820  105.9490  -21.7180 C.ar  437  TRP437      0.0152
    215  NE1       26.9530  106.6670  -23.7840 N.ar  437  TRP437     -0.2442
    216  CE2       27.0900  105.5420  -23.0180 C.ar  437  TRP437      0.0810
    217  CE3       27.6810  104.9740  -20.7400 C.ar  437  TRP437      0.0012
    218  CZ2       26.9060  104.2030  -23.3600 C.ar  437  TRP437      0.0191
    219  CZ3       27.4820  103.6480  -21.0750 C.ar  437  TRP437      0.0001
    220  CH2       27.1120  103.2710  -22.3840 C.ar  437  TRP437      0.0015
    221  N         26.9230  112.3130  -18.0140 N.3   439  LEU439     -0.1245
    222  CA        25.9640  113.4000  -17.8310 C.3   439  LEU439      0.1561
    223  C         24.7440  112.8700  -17.1080 C.2   439  LEU439      0.2260
    224  O         23.8150  113.6140  -16.7990 O.2   439  LEU439     -0.2867
    225  CB        25.5740  113.9940  -19.1990 C.3   439  LEU439      0.0270
    226  CG        26.3510  115.1120  -19.9280 C.3   439  LEU439      0.0019
    227  CD1       27.8400  115.3470  -19.5140 C.3   439  LEU439      0.0001
    228  CD2       26.2240  114.8600  -21.4260 C.3   439  LEU439      0.0001
    229  N         20.0140  115.2840  -19.3440 N.3   443  CYS443     -0.1235
    230  CA        19.5220  115.5240  -20.6940 C.3   443  CYS443      0.1677
    231  C         18.8590  114.2870  -21.3050 C.2   443  CYS443      0.2270
    232  O         18.8350  113.2340  -20.6880 O.2   443  CYS443     -0.2867
    233  CB        20.6530  116.0310  -21.5780 C.3   443  CYS443      0.0956
    234  SG        21.9910  114.8410  -21.6230 S.3   443  CYS443     -0.0801
    235  N         17.7530  112.3540  -25.3740 N.3   445  TYR445     -0.1241
    236  CA        18.1830  112.1900  -26.7660 C.3   445  TYR445      0.1605
    237  C         17.1600  111.5600  -27.6690 C.2   445  TYR445      0.2264
    238  O         17.3300  111.5380  -28.8830 O.2   445  TYR445     -0.2867
    239  CB        19.4120  111.3050  -26.8190 C.3   445  TYR445      0.0534
    240  CG        20.6700  112.0560  -27.0910 C.ar  445  TYR445     -0.0201
    241  CD1       21.4800  112.4840  -26.0440 C.ar  445  TYR445     -0.0009
    242  CD2       21.0490  112.3530  -28.3930 C.ar  445  TYR445     -0.0009
    243  CE1       22.6510  113.1770  -26.2910 C.ar  445  TYR445      0.0417
    244  CE2       22.2100  113.0520  -28.6530 C.ar  445  TYR445      0.0417
    245  CZ        23.0160  113.4590  -27.6060 C.ar  445  TYR445      0.1957
    246  OH        24.1890  114.1540  -27.8600 O.3   445  TYR445     -0.2866
@<TRIPOS>BOND
     1   104   103    2
     2   103   102    1
     3    99   100    1
     4    99    96    1
     5    98    97    2
     6    97    96    1
     7    97   101   am
     8   102   101    1
     9   102   105    1
    10    96    95    1
    11    95    89   am
    12   171   170    2
    13   168   169    1
    14    89    90    2
    15    89    88    1
    16   111   112    2
    17   111   110    1
    18   170   169    1
    19   109   110    1
    20    87    88    1
    21    88    91    1
    22   105   106    1
    23   117   118    1
    24   120   119    2
    25   169   172    1
    26   119   118    1
    27   110   113    1
    28   113   114    1
    29   118   121    1
    30   114   115    1
    31    91    92    1
    32   115   116    1
    33   172   173    1
    34   106   107    1
    35   184   185    1
    36   173   174    1
    37   121   122    1
    38    92    93    2
    39    92    94   am
    40   107   108    1
    41   166   165    2
    42   122   124   ar
    43   122   123   ar
    44   124   126   ar
    45   123   125   ar
    46   185   188    1
    47   185   186    1
    48   126   127   ar
    49   164   165    1
    50   164   163    1
    51    49    48   ar
    52   125   127   ar
    53   188   189    1
    54    55    56    1
    55    55    52    1
    56   165   167   am
    57    47    48    1
    58    47    46    1
    59   127   128    1
    60   174   175   ar
    61   174   176   ar
    62   187   186    2
    63    42    43    1
    64    42    36   am
    65    58    56   ar
    66    58    60   ar
    67    56    57   ar
    68    43    46    1
    69    43    44    1
    70   161   160    1
    71   161   162    2
    72    48    50   ar
    73    35    34    1
    74    35    36    1
    75    35    38    1
    76    60    59   ar
    77    57    59   ar
    78    51    52    1
    79    40    39    2
    80    52    53    1
    81   160   163    1
    82   160   159    1
    83   148   147    2
    84    36    37    2
    85   158   156   ar
    86   158   157   ar
    87   156   154   ar
    88    39    41   am
    89    39    38    1
    90    44    45    2
    91   194   191   ar
    92   194   196   ar
    93   189   191   ar
    94   189   190   ar
    95   157   155   ar
    96   191   193   ar
    97   154   153   ar
    98   154   152   ar
    99   153   151   ar
   100   196   197   ar
   101   147   159   am
   102   147   146    1
   103   238   237    2
   104    53    61   am
   105    53    54    2
   106   190   192   ar
   107   177   178    1
   108    61    62    1
   109    66    65    1
   110   244   242   ar
   111   244   245   ar
   112   155   152   ar
   113   152   150   ar
   114   242   240   ar
   115   151   150   ar
   116   193   192   ar
   117   193   195   ar
   118   150   149    1
   119   180   179    2
   120   246   245    1
   121   197   195   ar
   122   146   149    1
   123   146   145    1
   124   237   236    1
   125   245   243   ar
   126    65    62    1
   127    65    67    1
   128    62    63    1
   129    18    16   ar
   130    18    19   ar
   131   178   179    1
   132   178   181    1
   133    16    15   ar
   134   240   239    1
   135   240   241   ar
   136   182   181    1
   137   239   236    1
   138   236   235    1
   139   181   183    1
   140    19    17   ar
   141    31    29   ar
   142    31    33   ar
   143   129   130    1
   144    15    14    1
   145    15    17   ar
   146    28    29   ar
   147    28    26   ar
   148   243   241   ar
   149    63    64    2
   150    14    11    1
   151    10    11    1
   152    11    12    1
   153    29    27   ar
   154    33    32   ar
   155    26    25   ar
   156   130   131    1
   157   130   133    1
   158   141   131   am
   159   141   142    1
   160     9     7   am
   161    75    73   am
   162    12    20   am
   163    12    13    2
   164    27    25   ar
   165    27    30   ar
   166   131   132    2
   167   133   134    1
   168    32    30   ar
   169   143   142    1
   170   143   144    2
   171    25    24    1
   172    20    21    1
   173   205   204   ar
   174   206   204   ar
   175    68    69    1
   176   215   216   ar
   177   215   213   ar
   178    73    74    2
   179    73    72    1
   180   204   203    1
   181     8     7    2
   182     7     6    1
   183   218   216   ar
   184   218   220   ar
   185   216   214   ar
   186   213   212   ar
   187    21    24    1
   188    21    22    1
   189   203   202    1
   190    72    69    1
   191   134   135   ar
   192   134   136   ar
   193    69    70    1
   194    85    83   ar
   195    85    86   ar
   196   220   219   ar
   197   135   137   ar
   198     6     5    1
   199     5     2    1
   200    83    81   ar
   201    86    84   ar
   202   136   138   ar
   203   212   214   ar
   204   212   211    1
   205   214   217   ar
   206    22    23    2
   207   234   233    1
   208   233   230    1
   209   228   226    1
   210    70    71    2
   211   202   199    1
   212   231   230    1
   213   231   232    2
   214   219   217   ar
   215   137   139   ar
   216   199   200    1
   217   199   198    1
   218     1     2    1
   219     2     3    1
   220   230   229    1
   221     3     4    2
   222    81    82   ar
   223    81    80    1
   224    84    82   ar
   225   211   208    1
   226   138   139   ar
   227   200   207   am
   228   200   201    2
   229   207   208    1
   230   139   140    1
   231   226   227    1
   232   226   225    1
   233    80    77    1
   234   208   209    1
   235   225   222    1
   236    77    76    1
   237    77    78    1
   238   209   210    2
   239   221   222    1
   240    78    79    2
   241   222   223    1
   242   223   224    2
