@<TRIPOS>MOLECULE
tmp/2jfaB00.pdb
 132 126 0 0 0
SMALL
GASTEIGER

@<TRIPOS>ATOM
      1  N        -46.4360    8.2320   -0.3990 N.3    46  ASP46      -0.1239
      2  CA       -46.3900    7.7460   -1.7830 C.3    46  ASP46       0.1674
      3  C        -47.6940    7.0800   -2.2170 C.2    46  ASP46       0.2266
      4  O        -48.1460    7.2680   -3.3240 O.2    46  ASP46      -0.2867
      5  CB       -45.2060    6.8030   -2.0110 C.3    46  ASP46       0.1410
      6  CG       -43.8480    7.5120   -1.9030 C.2    46  ASP46       0.3668
      7  OD1      -43.7870    8.7720   -1.8250 O.co2  46  ASP46      -0.2456
      8  OD2      -42.8150    6.8040   -1.8930 O.co2  46  ASP46      -0.2456
      9  N        -50.3080    9.8420   -2.6970 N.3    49  LEU49      -0.1231
     10  CA       -50.0670   10.6280   -3.8910 C.3    49  LEU49       0.1693
     11  C        -50.7500   10.0030   -5.1030 C.2    49  LEU49       0.2591
     12  O        -51.3810   10.7120   -5.8880 O.2    49  LEU49      -0.2718
     13  CB       -48.5710   10.7910   -4.1190 C.3    49  LEU49       0.0284
     14  CG       -48.1690   11.5990   -5.3500 C.3    49  LEU49       0.0019
     15  CD1      -48.6860   13.0460   -5.2370 C.3    49  LEU49       0.0001
     16  CD2      -46.6640   11.5630   -5.5410 C.3    49  LEU49       0.0001
     17  N        -50.6550    8.6820   -5.2390 N.am   50  VAL50      -0.1980
     18  CA       -51.3380    7.9700   -6.3350 C.3    50  VAL50       0.1595
     19  C        -52.8450    8.2940   -6.3150 C.2    50  VAL50       0.2287
     20  O        -53.4510    8.4930   -7.3490 O.2    50  VAL50      -0.2864
     21  CB       -51.0650    6.4060   -6.3110 C.3    50  VAL50       0.0276
     22  CG1      -51.8380    5.6800   -7.3960 C.3    50  VAL50       0.0022
     23  CG2      -49.5840    6.1090   -6.4880 C.3    50  VAL50       0.0022
     24  N        -53.7610   12.0840   -7.3140 N.3    53  ILE53      -0.1231
     25  CA       -53.7700   12.3910   -8.7160 C.3    53  ILE53       0.1692
     26  C        -55.1770   12.1250   -9.2540 C.2    53  ILE53       0.2592
     27  O        -55.7670   12.9800   -9.9470 O.2    53  ILE53      -0.2718
     28  CB       -52.7140   11.5660   -9.4720 C.3    53  ILE53       0.0266
     29  CG1      -51.3080   11.9990   -9.0320 C.3    53  ILE53       0.0019
     30  CG2      -52.8900   11.7250  -10.9660 C.3    53  ILE53       0.0020
     31  CD1      -50.1980   11.0430   -9.4290 C.3    53  ILE53       0.0001
     32  N        -55.7270   10.9550   -8.9170 N.am   54  ASN54      -0.1974
     33  CA       -57.0670   10.6080   -9.3940 C.3    54  ASN54       0.1688
     34  C        -58.0930   11.5850   -8.8160 C.2    54  ASN54       0.2292
     35  O        -59.0430   11.9810   -9.4760 O.2    54  ASN54      -0.2864
     36  CB       -57.4420    9.1660   -9.0270 C.3    54  ASN54       0.1181
     37  CG       -56.4850    8.1360   -9.6180 C.2    54  ASN54       0.2629
     38  OD1      -55.8460    8.3590  -10.6540 O.2    54  ASN54      -0.2716
     39  ND2      -56.3860    6.9970   -8.9510 N.am   54  ASN54      -0.0877
     40  N        -58.1970   14.9020  -10.8850 N.3    57  LYS57      -0.1245
     41  CA       -58.9700   14.7940  -12.1160 C.3    57  LYS57       0.1561
     42  C        -60.4780   15.0020  -11.8820 C.2    57  LYS57       0.2260
     43  O        -61.2050   15.4280  -12.7820 O.2    57  LYS57      -0.2867
     44  CB       -58.6940   13.4670  -12.8080 C.3    57  LYS57       0.0271
     45  CG       -57.2650   13.3440  -13.2970 C.3    57  LYS57       0.0035
     46  CD       -57.0900   12.2350  -14.3610 C.3    57  LYS57       0.0206
     47  CE       -57.1730   10.8480  -13.7390 C.3    57  LYS57       0.1093
     48  NZ       -56.7700    9.7670  -14.6840 N.3    57  LYS57      -0.1314
     49  N        -60.2140   21.1890  -13.3000 N.3    62  PHE62      -0.1241
     50  CA       -58.8370   20.7230  -13.4000 C.3    62  PHE62       0.1605
     51  C        -58.4850   20.1360  -14.7610 C.2    62  PHE62       0.2264
     52  O        -57.4610   20.4910  -15.3500 O.2    62  PHE62      -0.2867
     53  CB       -58.5480   19.7100  -12.3000 C.3    62  PHE62       0.0534
     54  CG       -57.1060   19.3650  -12.1730 C.ar   62  PHE62      -0.0203
     55  CD1      -56.2180   20.2550  -11.6010 C.ar   62  PHE62      -0.0042
     56  CD2      -56.6300   18.1590  -12.6300 C.ar   62  PHE62      -0.0042
     57  CE1      -54.8700   19.9320  -11.4770 C.ar   62  PHE62      -0.0003
     58  CE2      -55.2980   17.8480  -12.5160 C.ar   62  PHE62      -0.0003
     59  CZ       -54.4170   18.7360  -11.9350 C.ar   62  PHE62      -0.0000
     60  N        -52.1610   19.5720  -19.9870 N.3    67  LEU67      -0.1231
     61  CA       -51.4710   18.5280  -19.2730 C.3    67  LEU67       0.1693
     62  C        -50.2840   19.1020  -18.5220 C.2    67  LEU67       0.2592
     63  O        -50.0850   18.7820  -17.3630 O.2    67  LEU67      -0.2718
     64  CB       -51.0340   17.4140  -20.2420 C.3    67  LEU67       0.0284
     65  CG       -50.4420   16.1170  -19.6700 C.3    67  LEU67       0.0019
     66  CD1      -51.3770   15.4330  -18.6230 C.3    67  LEU67       0.0001
     67  CD2      -50.0890   15.1610  -20.8370 C.3    67  LEU67       0.0001
     68  N        -49.5140   19.9660  -19.1570 N.am   68  HIS68      -0.1976
     69  CA       -48.3450   20.5630  -18.5270 C.3    68  HIS68       0.1656
     70  C        -48.7130   21.3160  -17.2410 C.2    68  HIS68       0.2291
     71  O        -47.9940   21.2180  -16.2390 O.2    68  HIS68      -0.2864
     72  CB       -47.6740   21.5030  -19.5340 C.3    68  HIS68       0.0771
     73  CG       -46.4760   22.2390  -19.0040 C.ar   68  HIS68       0.0820
     74  ND1      -45.1810   21.9290  -19.3900 N.ar   68  HIS68      -0.2267
     75  CD2      -46.3790   23.3040  -18.1610 C.ar   68  HIS68       0.1154
     76  CE1      -44.3390   22.7560  -18.7910 C.ar   68  HIS68       0.1986
     77  NE2      -45.0400   23.5990  -18.0410 N.ar   68  HIS68      -0.2212
     78  N        -51.5530   20.8750  -15.5050 N.3    70  GLN70      -0.1231
     79  CA       -52.1150   19.9350  -14.5350 C.3    70  GLN70       0.1698
     80  C        -50.9710   19.3470  -13.7060 C.2    70  GLN70       0.2592
     81  O        -51.0410   19.3230  -12.4780 O.2    70  GLN70      -0.2718
     82  CB       -52.9010   18.8250  -15.2330 C.3    70  GLN70       0.0381
     83  CG       -54.2720   19.2370  -15.7650 C.3    70  GLN70       0.0905
     84  CD       -54.9200   18.1230  -16.5870 C.2    70  GLN70       0.2608
     85  OE1      -54.9420   16.9610  -16.1640 O.2    70  GLN70      -0.2717
     86  NE2      -55.4460   18.4710  -17.7560 N.am   70  GLN70      -0.0878
     87  N        -49.9230   18.8970  -14.3990 N.am   71  VAL71      -0.1980
     88  CA       -48.7190   18.4130  -13.7690 C.3    71  VAL71       0.1595
     89  C        -48.1350   19.4360  -12.8280 C.2    71  VAL71       0.2287
     90  O        -47.8150   19.1160  -11.6970 O.2    71  VAL71      -0.2864
     91  CB       -47.6390   18.0280  -14.8000 C.3    71  VAL71       0.0276
     92  CG1      -46.2910   17.8220  -14.1300 C.3    71  VAL71       0.0022
     93  CG2      -48.0590   16.7920  -15.5720 C.3    71  VAL71       0.0022
     94  N        -50.0840   20.0030   -9.4040 N.3    74  LEU74      -0.1231
     95  CA       -49.8900   18.9330   -8.4480 C.3    74  LEU74       0.1693
     96  C        -48.4740   18.9590   -7.9180 C.2    74  LEU74       0.2591
     97  O        -48.2370   18.7410   -6.7580 O.2    74  LEU74      -0.2718
     98  CB       -50.2000   17.5780   -9.0770 C.3    74  LEU74       0.0284
     99  CG       -51.6950   17.2760   -9.1200 C.3    74  LEU74       0.0019
    100  CD1      -51.9890   16.2390  -10.1900 C.3    74  LEU74       0.0001
    101  CD2      -52.1840   16.8070   -7.7610 C.3    74  LEU74       0.0001
    102  N        -47.5270   19.2480   -8.7710 N.am   75  GLU75      -0.1979
    103  CA       -46.1390   19.3220   -8.3510 C.3    75  GLU75       0.1602
    104  C        -45.9130   20.4130   -7.2860 C.2    75  GLU75       0.2287
    105  O        -45.1340   20.2170   -6.3600 O.2    75  GLU75      -0.2864
    106  CB       -45.3010   19.6010   -9.5820 C.3    75  GLU75       0.0415
    107  CG       -43.8580   19.2620   -9.5250 C.3    75  GLU75       0.1163
    108  CD       -43.2580   19.4440  -10.9030 C.2    75  GLU75       0.3649
    109  OE1      -43.3170   18.4620  -11.6740 O.co2  75  GLU75      -0.2457
    110  OE2      -42.7820   20.5630  -11.2250 O.co2  75  GLU75      -0.2457
    111  N        -48.6850   19.1820   -3.8670 N.3    78  TRP78      -0.1241
    112  CA       -48.9370   17.8460   -3.3110 C.3    78  TRP78       0.1605
    113  C        -48.6870   17.7760   -1.8050 C.2    78  TRP78       0.2264
    114  O        -49.4740   17.1730   -1.0830 O.2    78  TRP78      -0.2867
    115  CB       -48.1900   16.7460   -4.0530 C.3    78  TRP78       0.0550
    116  CG       -46.7310   16.8220   -3.8990 C.ar   78  TRP78       0.0003
    117  CD1      -45.8890   17.5340   -4.6570 C.ar   78  TRP78       0.0946
    118  CD2      -45.9340   16.1670   -2.9150 C.ar   78  TRP78       0.0152
    119  NE1      -44.6040   17.3880   -4.2090 N.ar   78  TRP78      -0.2442
    120  CE2      -44.6070   16.5500   -3.1340 C.ar   78  TRP78       0.0810
    121  CE3      -46.2160   15.3050   -1.8680 C.ar   78  TRP78       0.0012
    122  CZ2      -43.5540   16.0930   -2.3530 C.ar   78  TRP78       0.0191
    123  CZ3      -45.1720   14.8490   -1.0860 C.ar   78  TRP78       0.0001
    124  CH2      -43.8570   15.2410   -1.3280 C.ar   78  TRP78       0.0015
    125  N        -40.6910   20.4920    2.5950 N.3   216  MET216     -0.1245
    126  CA       -39.8190   20.1840    1.4430 C.3   216  MET216      0.1570
    127  C        -38.3640   20.3710    1.8250 C.2   216  MET216      0.2261
    128  O        -37.4980   19.5890    1.4510 O.2   216  MET216     -0.2867
    129  CB       -40.1130   21.1010    0.2380 C.3   216  MET216      0.0387
    130  CG       -41.4050   20.8150   -0.5480 C.3   216  MET216      0.0595
    131  SD       -41.5060   19.0880   -1.1150 S.3   216  MET216     -0.1393
    132  CE       -40.2300   19.0670   -2.3810 C.3   216  MET216      0.0692
@<TRIPOS>BOND
     1    67    65    1
     2    64    65    1
     3    64    61    1
     4    60    61    1
     5    65    66    1
     6    72    73    1
     7    72    69    1
     8    74    73   ar
     9    74    76   ar
    10    61    62    1
    11    68    69    1
    12    68    62   am
    13    73    75   ar
    14    76    77   ar
    15    69    70    1
    16    62    63    2
    17    75    77   ar
    18    86    84   am
    19    70    71    2
    20    84    85    2
    21    84    83    1
    22    83    82    1
    23    93    91    1
    24    78    79    1
    25    52    51    2
    26    82    79    1
    27    91    92    1
    28    91    88    1
    29    51    50    1
    30    48    47    1
    31    79    80    1
    32    87    88    1
    33    87    80   am
    34    46    47    1
    35    46    45    1
    36    88    89    1
    37    80    81    2
    38    50    49    1
    39    50    53    1
    40    45    44    1
    41    89    90    2
    42    44    41    1
    43    43    42    2
    44    56    58   ar
    45    56    54   ar
    46    58    59   ar
    47    53    54    1
    48    54    55   ar
    49    41    42    1
    50    41    40    1
    51    59    57   ar
    52   109   108   ar
    53    55    57   ar
    54   110   108   ar
    55    30    28    1
    56   108   107    1
    57    38    37    2
    58   100    99    1
    59    27    26    2
    60    37    36    1
    61    37    39   am
    62   106   107    1
    63   106   103    1
    64    35    34    2
    65    28    29    1
    66    28    25    1
    67    31    29    1
    68    94    95    1
    69    33    36    1
    70    33    32    1
    71    33    34    1
    72    26    32   am
    73    26    25    1
    74    99    98    1
    75    99   101    1
    76    98    95    1
    77   102   103    1
    78   102    96   am
    79    25    24    1
    80    95    96    1
    81   103   104    1
    82    96    97    2
    83    22    21    1
    84    20    19    2
    85   104   105    2
    86    23    21    1
    87    18    19    1
    88    18    21    1
    89    18    17    1
    90    12    11    2
    91    16    14    1
    92    14    15    1
    93    14    13    1
    94    17    11   am
    95    11    10    1
    96   117   119   ar
    97   117   116   ar
    98   119   120   ar
    99    13    10    1
   100   115   116    1
   101   115   112    1
   102   116   118   ar
   103    10     9    1
   104   111   112    1
   105     4     3    2
   106   112   113    1
   107   120   118   ar
   108   120   122   ar
   109   118   121   ar
   110   132   131    1
   111   122   124   ar
   112     3     2    1
   113     5     6    1
   114     5     2    1
   115     6     8   ar
   116     6     7   ar
   117   121   123   ar
   118   113   114    2
   119     2     1    1
   120   124   123   ar
   121   131   130    1
   122   130   129    1
   123   129   126    1
   124   126   127    1
   125   126   125    1
   126   128   127    2
