@<TRIPOS>MOLECULE
tmp/2jfnA00.pdb
 106 104 0 0 0
SMALL
GASTEIGER

@<TRIPOS>ATOM
      1  N         36.5750   18.1870   38.7730 N.3     9  ASP9       -0.1225
      2  CA        35.2530   18.6510   38.3580 C.3     9  ASP9        0.1805
      3  C         34.2260   17.9240   39.2020 C.2     9  ASP9        0.2598
      4  O         34.5400   16.9280   39.8560 O.2     9  ASP9       -0.2718
      5  CB        34.9570   18.3430   36.8850 C.3     9  ASP9        0.1424
      6  CG        33.6020   18.8960   36.4430 C.2     9  ASP9        0.3668
      7  OD1       32.8930   18.2440   35.6460 O.co2   9  ASP9       -0.2456
      8  OD2       33.2390   19.9980   36.9030 O.co2   9  ASP9       -0.2456
      9  N         32.9960   18.4210   39.1790 N.am   10  SER10      -0.1952
     10  CA        31.9040   17.8000   39.9130 C.3    10  SER10       0.1924
     11  C         31.5000   16.5080   39.1860 C.2    10  SER10       0.2314
     12  O         31.0070   15.5640   39.8040 O.2    10  SER10      -0.2863
     13  CB        30.7170   18.7570   39.9690 C.3    10  SER10       0.2116
     14  OG        30.3130   19.0990   38.6570 O.3    10  SER10      -0.2180
     15  N         27.6750   16.0790   43.2840 N.3    39  PHE39      -0.1228
     16  CA        27.2420   16.5950   41.9840 C.3    39  PHE39       0.1721
     17  C         25.7140   16.6010   42.0450 C.2    39  PHE39       0.2437
     18  O         25.1230   15.6510   42.5550 O.2    39  PHE39      -0.2733
     19  CB        27.6890   15.6590   40.8560 C.3    39  PHE39       0.0547
     20  CG        27.1010   16.0060   39.5170 C.ar   39  PHE39      -0.0202
     21  CD1       27.7250   16.9330   38.6840 C.ar   39  PHE39      -0.0042
     22  CD2       25.8920   15.4450   39.1120 C.ar   39  PHE39      -0.0042
     23  CE1       27.1520   17.3000   37.4670 C.ar   39  PHE39      -0.0003
     24  CE2       25.3080   15.8070   37.8930 C.ar   39  PHE39      -0.0003
     25  CZ        25.9380   16.7350   37.0710 C.ar   39  PHE39      -0.0000
     26  N         25.0530   17.6450   41.5070 N.am   40  PRO40      -0.2718
     27  CA        25.5910   18.8360   40.8380 C.3    40  PRO40       0.1535
     28  C         25.9020   19.9930   41.7880 C.2    40  PRO40       0.2599
     29  O         25.1970   20.2140   42.7760 O.2    40  PRO40      -0.2715
     30  CB        24.4840   19.1950   39.8500 C.3    40  PRO40       0.0310
     31  CG        23.2570   18.8980   40.6470 C.3    40  PRO40       0.0237
     32  CD        23.5890   17.5650   41.3160 C.3    40  PRO40       0.0939
     33  N         26.9680   20.7250   41.4760 N.am   41  TYR41      -0.1960
     34  CA        27.3950   21.8700   42.2770 C.3    41  TYR41       0.1771
     35  C         26.5390   23.1190   41.9910 C.2    41  TYR41       0.2620
     36  O         26.3890   23.9930   42.8490 O.2    41  TYR41      -0.2715
     37  CB        28.8730   22.1820   41.9880 C.3    41  TYR41       0.0574
     38  CG        29.8870   21.3180   42.7250 C.ar   41  TYR41      -0.0198
     39  CD1       29.5200   20.1130   43.3390 C.ar   41  TYR41      -0.0009
     40  CD2       31.2280   21.7080   42.7940 C.ar   41  TYR41      -0.0009
     41  CE1       30.4750   19.3170   44.0060 C.ar   41  TYR41       0.0417
     42  CE2       32.1780   20.9320   43.4500 C.ar   41  TYR41       0.0417
     43  CZ        31.8020   19.7390   44.0540 C.ar   41  TYR41       0.1957
     44  OH        32.7580   18.9820   44.6980 O.3    41  TYR41      -0.2866
     45  N         25.9810   23.1900   40.7850 N.am   42  GLY42      -0.1954
     46  CA        25.1650   24.3320   40.4000 C.3    42  GLY42       0.1869
     47  C         24.1260   24.7700   41.4180 C.2    42  GLY42       0.2309
     48  O         23.8920   25.9650   41.6010 O.2    42  GLY42      -0.2863
     49  N         35.9790   23.3270   36.5090 N.3    73  CYS73      -0.1221
     50  CA        34.5790   23.3990   36.8820 C.3    73  CYS73       0.1808
     51  C         34.2190   24.8670   37.1370 C.2    73  CYS73       0.2601
     52  O         34.7300   25.4730   38.0750 O.2    73  CYS73      -0.2717
     53  CB        34.4020   22.5730   38.1630 C.3    73  CYS73       0.0970
     54  SG        32.8190   22.6590   38.9840 S.3    73  CYS73      -0.0800
     55  N         33.3410   25.4360   36.3100 N.am   74  ASN74      -0.1960
     56  CA        32.9370   26.8370   36.4700 C.3    74  ASN74       0.1819
     57  C         32.2180   27.1280   37.7840 C.2    74  ASN74       0.2621
     58  O         32.4730   28.1510   38.4260 O.2    74  ASN74      -0.2715
     59  CB        32.0430   27.2830   35.3060 C.3    74  ASN74       0.1195
     60  CG        32.7700   27.2980   33.9820 C.2    74  ASN74       0.2630
     61  OD1       32.9830   26.2510   33.3600 O.2    74  ASN74      -0.2716
     62  ND2       33.1650   28.4890   33.5390 N.am   74  ASN74      -0.0877
     63  N         31.3170   26.2360   38.1830 N.am   75  THR75      -0.1951
     64  CA        30.5670   26.4180   39.4200 C.3    75  THR75       0.1897
     65  C         31.4360   26.3110   40.6680 C.2    75  THR75       0.2313
     66  O         30.9720   26.5720   41.7740 O.2    75  THR75      -0.2863
     67  CB        29.4170   25.3890   39.5390 C.3    75  THR75       0.1794
     68  OG1       29.9340   24.0630   39.3530 O.3    75  THR75      -0.2208
     69  CG2       28.3540   25.6620   38.4930 C.3    75  THR75       0.0378
     70  N         25.5150   26.5520   33.1840 N.3   116  THR116     -0.1218
     71  CA        24.5220   25.8450   33.9600 C.3   116  THR116      0.1862
     72  C         23.6760   26.8900   34.6830 C.2   116  THR116      0.2287
     73  O         24.0690   28.0560   34.7900 O.2   116  THR116     -0.2866
     74  CB        25.1660   24.8650   34.9580 C.3   116  THR116      0.1770
     75  OG1       24.1360   24.0570   35.5440 O.3   116  THR116     -0.2211
     76  CG2       25.9320   25.6100   36.0370 C.3   116  THR116      0.0375
     77  N         23.6780   19.9520   31.3140 N.3   147  VAL147     -0.1245
     78  CA        24.7400   19.3110   32.0730 C.3   147  VAL147      0.1561
     79  C         24.4240   17.8200   32.1520 C.2   147  VAL147      0.2260
     80  O         25.3010   16.9800   31.9720 O.2   147  VAL147     -0.2867
     81  CB        24.8410   19.8830   33.5000 C.3   147  VAL147      0.0252
     82  CG1       25.9280   19.1450   34.2770 C.3   147  VAL147      0.0019
     83  CG2       25.1490   21.3730   33.4410 C.3   147  VAL147      0.0019
     84  N         30.4410   26.1820   30.7040 N.3   185  CYS185     -0.1221
     85  CA        30.2730   25.0340   31.5820 C.3   185  CYS185      0.1808
     86  C         31.2000   23.9980   30.9590 C.2   185  CYS185      0.2602
     87  O         31.0880   23.7050   29.7680 O.2   185  CYS185     -0.2717
     88  CB        28.8240   24.5510   31.5680 C.3   185  CYS185      0.0970
     89  SG        28.4830   23.2770   32.7880 S.3   185  CYS185     -0.0800
     90  N         32.1300   23.4550   31.7400 N.am  186  THR186     -0.1939
     91  CA        33.0720   22.4810   31.1880 C.3   186  THR186      0.2028
     92  C         32.3980   21.2090   30.6710 C.2   186  THR186      0.2642
     93  O         33.0200   20.4020   29.9780 O.2   186  THR186     -0.2714
     94  CB        34.1790   22.1120   32.2130 C.3   186  THR186      0.1808
     95  OG1       33.6040   21.4170   33.3260 O.3   186  THR186     -0.2208
     96  CG2       34.8660   23.3760   32.7200 C.3   186  THR186      0.0379
     97  N         31.1260   21.0240   31.0040 N.am  187  HIS187     -0.1973
     98  CA        30.3890   19.8610   30.5070 C.3   187  HIS187      0.1656
     99  C         29.9900   20.0560   29.0380 C.2   187  HIS187      0.2291
    100  O         29.9150   19.0960   28.2610 O.2   187  HIS187     -0.2864
    101  CB        29.0960   19.6440   31.3010 C.3   187  HIS187      0.0771
    102  CG        29.2430   18.7520   32.4960 C.ar  187  HIS187      0.0820
    103  ND1       29.8530   19.1580   33.6640 N.ar  187  HIS187     -0.2267
    104  CD2       28.8180   17.4850   32.7150 C.ar  187  HIS187      0.1154
    105  CE1       29.7940   18.1820   34.5520 C.ar  187  HIS187      0.1986
    106  NE2       29.1710   17.1560   34.0010 N.ar  187  HIS187     -0.2212
@<TRIPOS>BOND
     1   100    99    2
     2    99    98    1
     3    87    86    2
     4    93    92    2
     5    98    97    1
     6    98   101    1
     7    92    97   am
     8    92    91    1
     9    84    85    1
    10    86    85    1
    11    86    90   am
    12    91    90    1
    13    91    94    1
    14   101   102    1
    15    77    78    1
    16    88    85    1
    17    88    89    1
    18    80    79    2
    19    78    79    1
    20    78    81    1
    21    94    96    1
    22    94    95    1
    23   102   104   ar
    24   102   103   ar
    25   104   106   ar
    26    70    71    1
    27    61    60    2
    28    83    81    1
    29    81    82    1
    30    62    60   am
    31   103   105   ar
    32    71    72    1
    33    71    74    1
    34    60    59    1
    35   106   105   ar
    36    72    73    2
    37    74    75    1
    38    74    76    1
    39    59    56    1
    40     7     6   ar
    41    55    56    1
    42    55    51   am
    43     6     5    1
    44     6     8   ar
    45    56    57    1
    46    49    50    1
    47    50    51    1
    48    50    53    1
    49     5     2    1
    50    25    23   ar
    51    25    24   ar
    52    51    52    2
    53    23    21   ar
    54    57    63   am
    55    57    58    2
    56    24    22   ar
    57    53    54    1
    58    63    64    1
    59     2     1    1
    60     2     3    1
    61    69    67    1
    62    14    13    1
    63    21    20   ar
    64    22    20   ar
    65     9     3   am
    66     9    10    1
    67    11    12    2
    68    11    10    1
    69     3     4    2
    70    68    67    1
    71    64    67    1
    72    64    65    1
    73    20    19    1
    74    30    31    1
    75    30    27    1
    76    10    13    1
    77    46    45    1
    78    46    47    1
    79    31    32    1
    80    65    66    2
    81    45    35   am
    82    27    26    1
    83    27    28    1
    84    19    16    1
    85    32    26    1
    86    47    48    2
    87    33    28   am
    88    33    34    1
    89    26    17   am
    90    28    29    2
    91    16    17    1
    92    16    15    1
    93    37    34    1
    94    37    38    1
    95    35    34    1
    96    35    36    2
    97    17    18    2
    98    38    40   ar
    99    38    39   ar
   100    40    42   ar
   101    39    41   ar
   102    42    43   ar
   103    41    43   ar
   104    43    44    1
