@<TRIPOS>MOLECULE
tmp/2jfnA01.pdb
 158 151 0 0 0
SMALL
GASTEIGER

@<TRIPOS>ATOM
      1  N         35.3040   26.9780   40.4050 N.3    77  SER77      -0.1217
      2  CA        36.4640   27.8440   40.2450 C.3    77  SER77       0.1889
      3  C         36.4030   29.1400   41.0310 C.2    77  SER77       0.2288
      4  O         37.0560   29.2760   42.0640 O.2    77  SER77      -0.2866
      5  CB        36.7010   28.1670   38.7720 C.3    77  SER77       0.2089
      6  OG        37.5340   27.1930   38.1720 O.3    77  SER77      -0.2183
      7  N         38.9740   29.2780   44.3350 N.3    81  LEU81      -0.1245
      8  CA        40.3710   29.6350   44.1030 C.3    81  LEU81       0.1561
      9  C         41.1310   30.2860   45.2720 C.2    81  LEU81       0.2260
     10  O         42.2270   29.8510   45.6200 O.2    81  LEU81      -0.2867
     11  CB        40.4760   30.5010   42.8440 C.3    81  LEU81       0.0270
     12  CG        40.0520   29.8160   41.5380 C.3    81  LEU81       0.0019
     13  CD1       40.3450   30.7410   40.3590 C.3    81  LEU81       0.0001
     14  CD2       40.8130   28.4980   41.3630 C.3    81  LEU81       0.0001
     15  N         44.3150   28.4240   46.9110 N.3    85  ARG85      -0.1245
     16  CA        45.6300   29.0210   46.7610 C.3    85  ARG85       0.1563
     17  C         46.2610   29.3460   48.1040 C.2    85  ARG85       0.2260
     18  O         47.4770   29.4390   48.2130 O.2    85  ARG85      -0.2867
     19  CB        45.5400   30.2650   45.8750 C.3    85  ARG85       0.0307
     20  CG        45.3620   29.9040   44.4070 C.3    85  ARG85       0.0489
     21  CD        44.9670   31.0910   43.5260 C.3    85  ARG85       0.2205
     22  NE        44.8660   30.6550   42.1340 N.pl3  85  ARG85      -0.0865
     23  CZ        44.2120   31.3070   41.1750 C.cat  85  ARG85       0.5346
     24  NH1       43.5850   32.4420   41.4390 N.pl3  85  ARG85       0.1354
     25  NH2       44.1800   30.8100   39.9500 N.pl3  85  ARG85       0.1354
     26  N         44.8710   26.2630   38.8540 N.3    93  VAL93      -0.1231
     27  CA        44.2840   26.8920   37.6790 C.3    93  VAL93       0.1692
     28  C         42.7720   26.8910   37.8100 C.2    93  VAL93       0.2593
     29  O         42.1750   25.8950   38.2270 O.2    93  VAL93      -0.2718
     30  CB        44.6910   26.1450   36.3870 C.3    93  VAL93       0.0266
     31  CG1       43.9960   26.7530   35.1750 C.3    93  VAL93       0.0020
     32  CG2       46.1850   26.2150   36.2130 C.3    93  VAL93       0.0020
     33  N         42.1600   28.0210   37.4750 N.am   94  GLY94      -0.1942
     34  CA        40.7190   28.1320   37.5510 C.3    94  GLY94       0.2014
     35  C         40.1360   28.3090   36.1640 C.2    94  GLY94       0.2639
     36  O         40.8730   28.4070   35.1800 O.2    94  GLY94      -0.2714
     37  N         38.8090   28.3510   36.0880 N.am   95  VAL95      -0.1963
     38  CA        38.1210   28.5180   34.8110 C.3    95  VAL95       0.1727
     39  C         36.9830   29.5210   34.8940 C.2    95  VAL95       0.2616
     40  O         36.1780   29.5050   35.8330 O.2    95  VAL95      -0.2715
     41  CB        37.5090   27.2040   34.3150 C.3    95  VAL95       0.0290
     42  CG1       38.5870   26.1380   34.1650 C.3    95  VAL95       0.0023
     43  CG2       36.4250   26.7560   35.2760 C.3    95  VAL95       0.0023
     44  N         36.9320   30.4090   33.9130 N.am   96  VAL96      -0.1964
     45  CA        35.8690   31.3950   33.8300 C.3    96  VAL96       0.1712
     46  C         35.4090   31.3480   32.3750 C.2    96  VAL96       0.2458
     47  O         36.2020   31.0480   31.4830 O.2    96  VAL96      -0.2730
     48  CB        36.3680   32.8200   34.1730 C.3    96  VAL96       0.0289
     49  CG1       36.7170   32.9080   35.6520 C.3    96  VAL96       0.0023
     50  CG2       37.5790   33.1690   33.3300 C.3    96  VAL96       0.0023
     51  N         34.1220   31.6150   32.1210 N.am   97  PRO97      -0.2716
     52  CA        33.6100   31.5900   30.7430 C.3    97  PRO97       0.1536
     53  C         34.4820   32.4450   29.8260 C.2    97  PRO97       0.2598
     54  O         34.8650   33.5600   30.1940 O.2    97  PRO97      -0.2715
     55  CB        32.1950   32.1410   30.8940 C.3    97  PRO97       0.0310
     56  CG        31.7930   31.6190   32.2670 C.3    97  PRO97       0.0237
     57  CD        33.0440   31.8940   33.0880 C.3    97  PRO97       0.0939
     58  N         34.7860   31.9210   28.6390 N.am   98  ALA98      -0.1978
     59  CA        35.6380   32.6070   27.6630 C.3    98  ALA98       0.1597
     60  C         34.9770   33.8000   26.9740 C.2    98  ALA98       0.2287
     61  O         35.0230   33.9300   25.7470 O.2    98  ALA98      -0.2864
     62  CB        36.1250   31.6070   26.6140 C.3    98  ALA98       0.0319
     63  N         35.8400   37.0080   27.1430 N.3   100  LYS100     -0.1231
     64  CA        36.8360   37.9150   26.5840 C.3   100  LYS100      0.1678
     65  C         37.2100   37.6060   25.1250 C.2   100  LYS100      0.2434
     66  O         37.0810   38.4680   24.2600 O.2   100  LYS100     -0.2733
     67  CB        38.0910   37.9330   27.4680 C.3   100  LYS100      0.0284
     68  CG        39.1300   38.9550   27.0200 C.3   100  LYS100      0.0035
     69  CD        40.2920   39.0500   27.9880 C.3   100  LYS100      0.0206
     70  CE        41.3140   40.0480   27.4920 C.3   100  LYS100      0.1093
     71  NZ        42.5660   39.9710   28.2800 N.3   100  LYS100     -0.1314
     72  N         37.6870   36.3850   24.8290 N.am  101  PRO101     -0.2729
     73  CA        38.0240   36.1350   23.4240 C.3   101  PRO101      0.1401
     74  C         36.8050   36.1240   22.5010 C.2   101  PRO101      0.2269
     75  O         36.9000   36.5150   21.3390 O.2   101  PRO101     -0.2865
     76  CB        38.7430   34.7820   23.4690 C.3   101  PRO101      0.0296
     77  CG        38.1750   34.1230   24.6870 C.3   101  PRO101      0.0237
     78  CD        38.1190   35.2610   25.6790 C.3   101  PRO101      0.0939
     79  N         29.8780   37.0670   39.8450 N.3   124  TYR124     -0.1241
     80  CA        31.1640   36.9210   39.1710 C.3   124  TYR124      0.1605
     81  C         30.9450   36.9160   37.6590 C.2   124  TYR124      0.2264
     82  O         31.7410   37.4740   36.9000 O.2   124  TYR124     -0.2867
     83  CB        31.8290   35.6090   39.6050 C.3   124  TYR124      0.0534
     84  CG        33.2700   35.4400   39.1570 C.ar  124  TYR124     -0.0201
     85  CD1       33.6050   35.3650   37.8040 C.ar  124  TYR124     -0.0009
     86  CD2       34.3000   35.3390   40.0940 C.ar  124  TYR124     -0.0009
     87  CE1       34.9300   35.1930   37.3950 C.ar  124  TYR124      0.0417
     88  CE2       35.6280   35.1650   39.6970 C.ar  124  TYR124      0.0417
     89  CZ        35.9350   35.0930   38.3460 C.ar  124  TYR124      0.1957
     90  OH        37.2430   34.9180   37.9500 O.3   124  TYR124     -0.2866
     91  N         32.0040   39.8760   34.7140 N.3   128  LEU128     -0.1245
     92  CA        32.8740   39.5560   33.5890 C.3   128  LEU128      0.1561
     93  C         32.2320   40.0000   32.2770 C.2   128  LEU128      0.2260
     94  O         32.9140   40.4660   31.3640 O.2   128  LEU128     -0.2867
     95  CB        33.1460   38.0500   33.5460 C.3   128  LEU128      0.0270
     96  CG        34.1380   37.5380   32.4980 C.3   128  LEU128      0.0019
     97  CD1       35.5110   38.1410   32.7440 C.3   128  LEU128      0.0001
     98  CD2       34.2130   36.0210   32.5740 C.3   128  LEU128      0.0001
     99  N         34.7730   42.5950   29.8950 N.3   132  PHE132     -0.1241
    100  CA        35.3800   42.3290   28.5910 C.3   132  PHE132      0.1605
    101  C         34.4000   42.2210   27.4260 C.2   132  PHE132      0.2264
    102  O         34.7890   41.8360   26.3240 O.2   132  PHE132     -0.2867
    103  CB        36.2320   41.0550   28.6440 C.3   132  PHE132      0.0534
    104  CG        37.3760   41.1280   29.6160 C.ar  132  PHE132     -0.0203
    105  CD1       37.2450   40.6210   30.9050 C.ar  132  PHE132     -0.0042
    106  CD2       38.5830   41.7140   29.2470 C.ar  132  PHE132     -0.0042
    107  CE1       38.3020   40.6960   31.8130 C.ar  132  PHE132     -0.0003
    108  CE2       39.6450   41.7940   30.1480 C.ar  132  PHE132     -0.0003
    109  CZ        39.5030   41.2840   31.4320 C.ar  132  PHE132     -0.0000
    110  N         35.4270   27.9650   23.9460 N.3   207  ASP207     -0.1225
    111  CA        35.5550   27.5050   25.3190 C.3   207  ASP207      0.1805
    112  C         36.9520   27.8180   25.8350 C.2   207  ASP207      0.2598
    113  O         37.7670   28.4180   25.1260 O.2   207  ASP207     -0.2718
    114  CB        35.2100   26.0080   25.4690 C.3   207  ASP207      0.1424
    115  CG        36.1300   25.0950   24.6890 C.2   207  ASP207      0.3668
    116  OD1       37.3610   25.1660   24.8740 O.co2 207  ASP207     -0.2456
    117  OD2       35.6130   24.2830   23.8910 O.co2 207  ASP207     -0.2456
    118  N         37.2220   27.4090   27.0670 N.am  208  SER208     -0.1952
    119  CA        38.4930   27.6930   27.7300 C.3   208  SER208      0.1924
    120  C         39.5680   26.6130   27.6620 C.2   208  SER208      0.2314
    121  O         40.6960   26.8330   28.1180 O.2   208  SER208     -0.2863
    122  CB        38.2120   28.0030   29.2000 C.3   208  SER208      0.2116
    123  OG        37.3300   29.1050   29.3150 O.3   208  SER208     -0.2180
    124  N         43.1910   27.2900   26.1350 N.3   211  ALA211     -0.1231
    125  CA        43.8200   28.3410   26.9370 C.3   211  ALA211      0.1694
    126  C         44.2480   27.8210   28.3090 C.2   211  ALA211      0.2591
    127  O         45.2530   28.2810   28.8710 O.2   211  ALA211     -0.2718
    128  CB        42.8720   29.5120   27.1060 C.3   211  ALA211      0.0304
    129  N         43.4760   26.8740   28.8500 N.am  212  ILE212     -0.1980
    130  CA        43.7850   26.2810   30.1490 C.3   212  ILE212      0.1595
    131  C         45.0350   25.4420   29.9860 C.2   212  ILE212      0.2287
    132  O         45.9150   25.4280   30.8500 O.2   212  ILE212     -0.2864
    133  CB        42.6510   25.3510   30.6360 C.3   212  ILE212      0.0276
    134  CG1       41.3640   26.1520   30.8040 C.3   212  ILE212      0.0022
    135  CG2       43.0530   24.6710   31.9530 C.3   212  ILE212      0.0022
    136  CD1       41.4670   27.2380   31.8200 C.3   212  ILE212      0.0001
    137  N         47.4370   25.8630   27.7840 N.3   214  ARG214     -0.1231
    138  CA        48.5760   26.7760   27.6950 C.3   214  ARG214      0.1694
    139  C         48.9520   27.3320   29.0690 C.2   214  ARG214      0.2591
    140  O         50.1290   27.4220   29.4020 O.2   214  ARG214     -0.2718
    141  CB        48.2730   27.9320   26.7290 C.3   214  ARG214      0.0321
    142  CG        48.1870   27.5160   25.2590 C.3   214  ARG214      0.0489
    143  CD        48.1810   28.7450   24.3520 C.3   214  ARG214      0.2205
    144  NE        46.9820   29.5630   24.5300 N.pl3 214  ARG214     -0.0865
    145  CZ        45.8180   29.3160   23.9340 C.cat 214  ARG214      0.5346
    146  NH1       45.6970   28.2810   23.1150 N.pl3 214  ARG214      0.1354
    147  NH2       44.7700   30.0940   24.1680 N.pl3 214  ARG214      0.1354
    148  N         47.9570   27.7020   29.8690 N.am  215  ARG215     -0.1980
    149  CA        48.2290   28.2290   31.2060 C.3   215  ARG215      0.1597
    150  C         48.8850   27.1550   32.0820 C.2   215  ARG215      0.2287
    151  O         49.7600   27.4580   32.9010 O.2   215  ARG215     -0.2864
    152  CB        46.9340   28.7130   31.8610 C.3   215  ARG215      0.0334
    153  CG        47.1070   29.2350   33.2800 C.3   215  ARG215      0.0492
    154  CD        48.0980   30.4000   33.3570 C.3   215  ARG215      0.2205
    155  NE        48.0910   31.0100   34.6850 N.pl3 215  ARG215     -0.0865
    156  CZ        48.8830   32.0090   35.0600 C.cat 215  ARG215      0.5346
    157  NH1       49.7590   32.5190   34.2040 N.pl3 215  ARG215      0.1354
    158  NH2       48.7940   32.5020   36.2890 N.pl3 215  ARG215      0.1354
@<TRIPOS>BOND
     1    75    74    2
     2    74    73    1
     3   146   145    1
     4    73    76    1
     5    73    72    1
     6    76    77    1
     7   117   115   ar
     8   145   147    1
     9   145   144    2
    10   110   111    1
    11    66    65    2
    12   143   144    1
    13   143   142    1
    14    77    78    1
    15   115   116   ar
    16   115   114    1
    17    72    65   am
    18    72    78    1
    19    65    64    1
    20   113   112    2
    21   142   141    1
    22   111   114    1
    23   111   112    1
    24    61    60    2
    25   112   118   am
    26   124   125    1
    27   102   101    2
    28    64    63    1
    29    64    67    1
    30    62    59    1
    31   141   138    1
    32   125   128    1
    33   125   126    1
    34    60    59    1
    35    68    67    1
    36    68    69    1
    37   118   119    1
    38   101   100    1
    39    70    69    1
    40    70    71    1
    41   120   119    1
    42   120   121    2
    43    59    58    1
    44   138   137    1
    45   138   139    1
    46   119   122    1
    47   126   129   am
    48   126   127    2
    49   100   103    1
    50   100    99    1
    51    58    53   am
    52   103   104    1
    53   129   130    1
    54   139   140    2
    55   139   148   am
    56   122   123    1
    57   106   104   ar
    58   106   108   ar
    59   104   105   ar
    60    53    54    2
    61    53    52    1
    62   148   149    1
    63   131   130    1
    64   131   132    2
    65   108   109   ar
    66   130   133    1
    67   133   134    1
    68   133   135    1
    69    52    55    1
    70    52    51    1
    71   134   136    1
    72    55    56    1
    73   105   107   ar
    74   149   152    1
    75   149   150    1
    76    94    93    2
    77   109   107   ar
    78    47    46    2
    79   152   153    1
    80   150   151    2
    81    51    46   am
    82    51    57    1
    83    56    57    1
    84    93    92    1
    85    46    45    1
    86    96    98    1
    87    96    97    1
    88    96    95    1
    89   153   154    1
    90    50    48    1
    91   154   155    1
    92    95    92    1
    93    92    91    1
    94    45    44    1
    95    45    48    1
    96    44    39   am
    97    42    41    1
    98    48    49    1
    99   157   156    1
   100    41    38    1
   101    41    43    1
   102   155   156    2
   103    38    39    1
   104    38    37    1
   105    39    40    2
   106   156   158    1
   107    31    30    1
   108    36    35    2
   109    37    35   am
   110    35    34    1
   111    32    30    1
   112    30    27    1
   113    82    81    2
   114    87    85   ar
   115    87    89   ar
   116    33    34    1
   117    33    28   am
   118    81    80    1
   119    27    28    1
   120    27    26    1
   121    85    84   ar
   122    28    29    2
   123    90    89    1
   124     6     5    1
   125    89    88   ar
   126     5     2    1
   127    84    83    1
   128    84    86   ar
   129    80    83    1
   130    80    79    1
   131    88    86   ar
   132    25    23    1
   133     2     1    1
   134     2     3    1
   135    13    12    1
   136     3     4    2
   137    23    24    1
   138    23    22    2
   139    14    12    1
   140    12    11    1
   141    22    21    1
   142    11     8    1
   143    21    20    1
   144     8     7    1
   145     8     9    1
   146    20    19    1
   147     9    10    2
   148    19    16    1
   149    16    15    1
   150    16    17    1
   151    17    18    2
