@<TRIPOS>MOLECULE
tmp/2jfvA00.pdb
 117 113 0 0 0
SMALL
GASTEIGER

@<TRIPOS>ATOM
      1  N          2.8360   53.6490   24.7680 N.3    14  ASP14      -0.1225
      2  CA         3.6400   53.4840   23.5640 C.3    14  ASP14       0.1805
      3  C          3.1510   52.2540   22.8210 C.2    14  ASP14       0.2598
      4  O          2.5890   51.3400   23.4210 O.2    14  ASP14      -0.2718
      5  CB         5.1150   53.3180   23.9560 C.3    14  ASP14       0.1424
      6  CG         6.0490   53.2650   22.7520 C.2    14  ASP14       0.3668
      7  OD1        5.6480   53.6870   21.6480 O.co2  14  ASP14      -0.2456
      8  OD2        7.1950   52.8120   22.9180 O.co2  14  ASP14      -0.2456
      9  N          3.3430   52.2340   21.5090 N.am   15  SER15      -0.1952
     10  CA         2.9180   51.0770   20.7390 C.3    15  SER15       0.1924
     11  C          3.8740   49.9330   21.0500 C.2    15  SER15       0.2314
     12  O          3.4830   48.7650   21.0510 O.2    15  SER15      -0.2863
     13  CB         2.9610   51.3900   19.2470 C.3    15  SER15       0.2116
     14  OG         4.2710   51.7530   18.8740 O.3    15  SER15      -0.2180
     15  N          2.0430   46.4600   17.7220 N.3    44  CYS44      -0.1221
     16  CA         3.1660   47.2790   17.2620 C.3    44  CYS44       0.1794
     17  C          3.5970   46.7070   15.9070 C.2    44  CYS44       0.2443
     18  O          3.6210   45.4910   15.7360 O.2    44  CYS44      -0.2733
     19  CB         4.3130   47.1690   18.2760 C.3    44  CYS44       0.0970
     20  SG         5.8650   47.9850   17.8200 S.3    44  CYS44      -0.0800
     21  N          3.9490   47.5630   14.9300 N.am   45  PRO45      -0.2718
     22  CA         3.9990   49.0280   14.9250 C.3    45  PRO45       0.1535
     23  C          2.7000   49.6820   14.4650 C.2    45  PRO45       0.2599
     24  O          1.8870   49.0580   13.7790 O.2    45  PRO45      -0.2715
     25  CB         5.1370   49.3140   13.9560 C.3    45  PRO45       0.0310
     26  CG         4.8910   48.2790   12.9010 C.3    45  PRO45       0.0237
     27  CD         4.6090   47.0260   13.7200 C.3    45  PRO45       0.0939
     28  N          2.5300   50.9480   14.8350 N.am   46  TYR46      -0.1960
     29  CA         1.3500   51.7350   14.4750 C.3    46  TYR46       0.1771
     30  C          1.5540   52.4810   13.1580 C.2    46  TYR46       0.2620
     31  O          0.5960   52.7610   12.4390 O.2    46  TYR46      -0.2715
     32  CB         1.0640   52.7900   15.5460 C.3    46  TYR46       0.0574
     33  CG         0.4160   52.3010   16.8230 C.ar   46  TYR46      -0.0198
     34  CD1        0.1930   50.9410   17.0610 C.ar   46  TYR46      -0.0009
     35  CD2        0.0090   53.2160   17.7930 C.ar   46  TYR46      -0.0009
     36  CE1       -0.4280   50.5110   18.2470 C.ar   46  TYR46       0.0417
     37  CE2       -0.6040   52.8030   18.9630 C.ar   46  TYR46       0.0417
     38  CZ        -0.8220   51.4530   19.1880 C.ar   46  TYR46       0.1957
     39  OH        -1.4350   51.0730   20.3610 O.3    46  TYR46      -0.2866
     40  N          2.8060   52.8200   12.8740 N.am   47  GLY47      -0.1954
     41  CA         3.1520   53.5740   11.6780 C.3    47  GLY47       0.1869
     42  C          2.4290   53.2760   10.3760 C.2    47  GLY47       0.2309
     43  O          1.8210   54.1740    9.7860 O.2    47  GLY47      -0.2863
     44  N          4.5110   58.4640   24.5080 N.3    76  ALA76      -0.1231
     45  CA         5.9040   58.2650   24.1300 C.3    76  ALA76       0.1694
     46  C          6.1180   57.7370   22.7140 C.2    76  ALA76       0.2592
     47  O          7.2450   57.4420   22.3270 O.2    76  ALA76      -0.2718
     48  CB         6.5690   57.3360   25.1380 C.3    76  ALA76       0.0304
     49  N          5.0410   57.6320   21.9460 N.am   77  CYS77      -0.1956
     50  CA         5.0880   57.1290   20.5740 C.3    77  CYS77       0.1843
     51  C          5.0440   58.2950   19.5720 C.2    77  CYS77       0.2625
     52  O          4.2420   59.2110   19.7230 O.2    77  CYS77      -0.2714
     53  CB         3.8950   56.1770   20.3670 C.3    77  CYS77       0.0997
     54  SG         3.5920   55.5820   18.6920 S.3    77  CYS77      -0.0797
     55  N          5.9090   58.2690   18.5560 N.am   78  ASN78      -0.1958
     56  CA         5.9230   59.3400   17.5600 C.3    78  ASN78       0.1819
     57  C          4.6630   59.3450   16.7100 C.2    78  ASN78       0.2621
     58  O          4.0800   60.3970   16.4590 O.2    78  ASN78      -0.2715
     59  CB         7.1390   59.2230   16.6300 C.3    78  ASN78       0.1195
     60  CG         8.4190   59.6960   17.2810 C.2    78  ASN78       0.2630
     61  OD1        8.3940   60.4800   18.2290 O.2    78  ASN78      -0.2716
     62  ND2        9.5500   59.2390   16.7620 N.am   78  ASN78      -0.0877
     63  N          4.2490   58.1680   16.2560 N.am   79  THR79      -0.1951
     64  CA         3.0610   58.0700   15.4270 C.3    79  THR79       0.1897
     65  C          1.8200   58.4910   16.2000 C.2    79  THR79       0.2313
     66  O          0.9750   59.2110   15.6760 O.2    79  THR79      -0.2863
     67  CB         2.8740   56.6360   14.8850 C.3    79  THR79       0.1794
     68  OG1        4.0060   56.2840   14.0790 O.3    79  THR79      -0.2208
     69  CG2        1.6170   56.5460   14.0350 C.3    79  THR79       0.0378
     70  N         13.4950   56.5460   12.7610 N.3   121  THR121     -0.1218
     71  CA        13.0540   55.5250   11.8200 C.3   121  THR121      0.1862
     72  C         12.6820   56.2100   10.5100 C.2   121  THR121      0.2287
     73  O         12.4390   57.4180   10.4680 O.2   121  THR121     -0.2866
     74  CB        11.8190   54.7740   12.3310 C.3   121  THR121      0.1770
     75  OG1       10.7310   55.6970   12.4620 O.3   121  THR121     -0.2211
     76  CG2       12.1080   54.1170   13.6730 C.3   121  THR121      0.0375
     77  N         10.0070   56.0950    8.9690 N.3   123  GLY123     -0.1210
     78  CA         8.6730   56.6560    9.0750 C.3   123  GLY123      0.1956
     79  C          8.7150   58.0500    9.6800 C.2   123  GLY123      0.2612
     80  O          8.0830   58.9820    9.1800 O.2   123  GLY123     -0.2717
     81  N          9.4660   58.1950   10.7660 N.am  124  THR124     -0.1952
     82  CA         9.5850   59.4850   11.4300 C.3   124  THR124      0.1897
     83  C         10.2520   60.4900   10.4980 C.2   124  THR124      0.2313
     84  O          9.7920   61.6240   10.3570 O.2   124  THR124     -0.2863
     85  CB        10.4030   59.3600   12.7310 C.3   124  THR124      0.1794
     86  OG1        9.6580   58.5910   13.6840 O.3   124  THR124     -0.2208
     87  CG2       10.6930   60.7340   13.3250 C.3   124  THR124      0.0378
     88  N         16.7410   50.2260   15.6620 N.3   152  VAL152     -0.1245
     89  CA        15.7310   49.6400   16.5350 C.3   152  VAL152      0.1561
     90  C         15.9570   48.1500   16.7900 C.2   152  VAL152      0.2260
     91  O         15.9060   47.7060   17.9380 O.2   152  VAL152     -0.2867
     92  CB        14.3070   49.8690   15.9710 C.3   152  VAL152      0.0252
     93  CG1       13.2930   49.0080   16.7110 C.3   152  VAL152      0.0019
     94  CG2       13.9410   51.3420   16.1140 C.3   152  VAL152      0.0019
     95  N         14.1670   58.8680   17.9800 N.3   188  CYS188     -0.1221
     96  CA        13.5520   57.5550   18.1840 C.3   188  CYS188      0.1808
     97  C         13.8690   57.1990   19.6290 C.2   188  CYS188      0.2602
     98  O         15.0280   57.2750   20.0450 O.2   188  CYS188     -0.2717
     99  CB        14.1540   56.5080   17.2430 C.3   188  CYS188      0.0970
    100  SG        13.6160   54.8130   17.5910 S.3   188  CYS188     -0.0800
    101  N         12.8520   56.8090   20.3930 N.am  189  THR189     -0.1939
    102  CA        13.0530   56.4940   21.8020 C.3   189  THR189      0.2028
    103  C         13.9710   55.3090   22.0890 C.2   189  THR189      0.2642
    104  O         14.3930   55.1150   23.2260 O.2   189  THR189     -0.2714
    105  CB        11.7020   56.2890   22.5290 C.3   189  THR189      0.1808
    106  OG1       10.9390   55.2830   21.8600 O.3   189  THR189     -0.2208
    107  CG2       10.9130   57.5890   22.5460 C.3   189  THR189      0.0379
    108  N         14.2850   54.5140   21.0710 N.am  190  HIS190     -0.1973
    109  CA        15.1900   53.3850   21.2640 C.3   190  HIS190      0.1656
    110  C         16.6470   53.8570   21.2950 C.2   190  HIS190      0.2291
    111  O         17.5030   53.2240   21.9160 O.2   190  HIS190     -0.2864
    112  CB        15.0920   52.3750   20.1070 C.3   190  HIS190      0.0771
    113  CG        13.8620   51.5220   20.1180 C.ar  190  HIS190      0.0820
    114  ND1       12.6030   52.0200   19.8610 N.ar  190  HIS190     -0.2267
    115  CD2       13.7100   50.1880   20.2980 C.ar  190  HIS190      0.1154
    116  CE1       11.7300   51.0270   19.8770 C.ar  190  HIS190      0.1986
    117  NE2       12.3760   49.9060   20.1410 N.ar  190  HIS190     -0.2212
@<TRIPOS>BOND
     1    77    78    1
     2    78    79    1
     3    80    79    2
     4    79    81   am
     5    43    42    2
     6    84    83    2
     7    42    41    1
     8    73    72    2
     9    83    82    1
    10    72    71    1
    11    81    82    1
    12    82    85    1
    13    41    40    1
    14    71    74    1
    15    71    70    1
    16    74    75    1
    17    74    76    1
    18    31    30    2
    19    85    87    1
    20    85    86    1
    21    40    30   am
    22    26    27    1
    23    26    25    1
    24    30    29    1
    25    27    21    1
    26    24    23    2
    27    25    22    1
    28    69    67    1
    29    68    67    1
    30    23    28   am
    31    23    22    1
    32    29    28    1
    33    29    32    1
    34    67    64    1
    35    22    21    1
    36    21    17   am
    37    64    65    1
    38    64    63    1
    39    32    33    1
    40    88    89    1
    41    66    65    2
    42    18    17    2
    43    17    16    1
    44    92    94    1
    45    92    89    1
    46    92    93    1
    47    63    57   am
    48    58    57    2
    49    89    90    1
    50    59    60    1
    51    59    56    1
    52    57    56    1
    53    62    60   am
    54    90    91    2
    55    33    34   ar
    56    33    35   ar
    57    34    36   ar
    58    99   100    1
    59    99    96    1
    60    16    15    1
    61    16    19    1
    62    60    61    2
    63    56    55    1
    64    35    37   ar
    65    20    19    1
    66    95    96    1
    67    96    97    1
    68    36    38   ar
    69    55    51   am
    70    54    53    1
    71    14    13    1
    72    37    38   ar
    73    38    39    1
    74    13    10    1
    75    51    52    2
    76    51    50    1
    77    97    98    2
    78    97   101   am
    79   114   116   ar
    80   114   113   ar
    81   116   117   ar
    82   112   113    1
    83   112   109    1
    84   113   115   ar
    85   117   115   ar
    86    53    50    1
    87   101   102    1
    88    50    49    1
    89    10    11    1
    90    10     9    1
    91    11    12    2
    92   108   109    1
    93   108   103   am
    94   109   110    1
    95   110   111    2
    96     9     3   am
    97     7     6   ar
    98   102   103    1
    99   102   105    1
   100   106   105    1
   101    49    46   am
   102   103   104    2
   103    47    46    2
   104   105   107    1
   105    46    45    1
   106     6     8   ar
   107     6     5    1
   108     3     4    2
   109     3     2    1
   110     2     5    1
   111     2     1    1
   112    45    44    1
   113    45    48    1
