@<TRIPOS>MOLECULE
tmp/2jfwA00.pdb
 125 119 0 0 0
SMALL
GASTEIGER

@<TRIPOS>ATOM
      1  N         37.3880   24.2380    5.9560 N.3    14  ASP14      -0.1225
      2  CA        37.0960   23.3540    7.0740 C.3    14  ASP14       0.1805
      3  C         38.3470   23.1060    7.9150 C.2    14  ASP14       0.2598
      4  O         39.4750   23.2290    7.4320 O.2    14  ASP14      -0.2718
      5  CB        36.5390   22.0310    6.5210 C.3    14  ASP14       0.1424
      6  CG        36.3090   20.9770    7.5970 C.2    14  ASP14       0.3668
      7  OD1       35.7400   21.2980    8.6580 O.co2  14  ASP14      -0.2456
      8  OD2       36.6890   19.8100    7.3670 O.co2  14  ASP14      -0.2456
      9  N         38.1380   22.7730    9.1820 N.am   15  SER15      -0.1938
     10  CA        39.2460   22.4930   10.0840 C.3    15  SER15       0.2055
     11  C         39.9030   21.1750    9.6860 C.2    15  SER15       0.2643
     12  O         41.1260   21.0490    9.7240 O.2    15  SER15      -0.2714
     13  CB        38.7430   22.4150   11.5270 C.3    15  SER15       0.2130
     14  OG        37.6880   21.4770   11.6460 O.3    15  SER15      -0.2179
     15  N         39.0910   20.2020    9.2770 N.am   16  GLY16      -0.1954
     16  CA        39.6350   18.9100    8.8960 C.3    16  GLY16       0.1869
     17  C         39.0720   18.2810    7.6360 C.2    16  GLY16       0.2309
     18  O         39.1630   18.8530    6.5520 O.2    16  GLY16      -0.2863
     19  N         35.8030   16.6080    7.7870 N.3    18  GLY18      -0.1225
     20  CA        34.3560   16.5500    7.8850 C.3    18  GLY18       0.1811
     21  C         33.6860   17.3200    6.7620 C.2    18  GLY18       0.2280
     22  O         32.6850   16.8760    6.2130 O.2    18  GLY18      -0.2866
     23  N         44.1250   21.0460   13.0110 N.3    44  CYS44      -0.1221
     24  CA        42.9030   20.4030   13.4750 C.3    44  CYS44       0.1794
     25  C         43.2850   19.6440   14.7540 C.2    44  CYS44       0.2443
     26  O         44.3550   19.0390   14.8170 O.2    44  CYS44      -0.2733
     27  CB        42.4060   19.4330   12.3970 C.3    44  CYS44       0.0970
     28  SG        41.0730   18.3120   12.8870 S.3    44  CYS44      -0.0800
     29  N         42.4070   19.6270   15.7700 N.am   45  PRO45      -0.2718
     30  CA        41.0780   20.2340   15.8700 C.3    45  PRO45       0.1535
     31  C         41.0380   21.7010   16.2800 C.2    45  PRO45       0.2599
     32  O         41.9750   22.2200   16.8810 O.2    45  PRO45      -0.2715
     33  CB        40.3890   19.3430   16.8930 C.3    45  PRO45       0.0310
     34  CG        41.4950   19.0950   17.8630 C.3    45  PRO45       0.0237
     35  CD        42.6840   18.8010   16.9620 C.3    45  PRO45       0.0939
     36  N         39.9240   22.3510   15.9560 N.am   46  TYR46      -0.1960
     37  CA        39.6940   23.7580   16.2730 C.3    46  TYR46       0.1771
     38  C         38.8740   23.8790   17.5540 C.2    46  TYR46       0.2620
     39  O         38.9560   24.8820   18.2700 O.2    46  TYR46      -0.2715
     40  CB        38.9080   24.4310   15.1390 C.3    46  TYR46       0.0574
     41  CG        39.7140   24.9200   13.9500 C.ar   46  TYR46      -0.0198
     42  CD1       40.9280   24.3260   13.5930 C.ar   46  TYR46      -0.0009
     43  CD2       39.2290   25.9600   13.1510 C.ar   46  TYR46      -0.0009
     44  CE1       41.6360   24.7580   12.4680 C.ar   46  TYR46       0.0417
     45  CE2       39.9240   26.3940   12.0280 C.ar   46  TYR46       0.0417
     46  CZ        41.1230   25.7930   11.6900 C.ar   46  TYR46       0.1957
     47  OH        41.7930   26.2220   10.5700 O.3    46  TYR46      -0.2866
     48  N         38.0650   22.8570   17.8200 N.am   47  GLY47      -0.1954
     49  CA        37.2090   22.8580   18.9970 C.3    47  GLY47       0.1869
     50  C         37.8690   23.2770   20.3000 C.2    47  GLY47       0.2309
     51  O         37.4870   24.2830   20.9010 O.2    47  GLY47      -0.2863
     52  N         32.3260   23.7550    8.6420 N.3    77  CYS77      -0.1221
     53  CA        32.5030   23.1140    9.9400 C.3    77  CYS77       0.1808
     54  C         31.8020   23.9250   11.0270 C.2    77  CYS77       0.2601
     55  O         31.8450   25.1570   11.0190 O.2    77  CYS77      -0.2717
     56  CB        34.0060   22.9250   10.2580 C.3    77  CYS77       0.0970
     57  SG        34.7960   24.1620   11.2920 S.3    77  CYS77      -0.0800
     58  N         31.1450   23.2230   11.9490 N.am   78  ASN78      -0.1960
     59  CA        30.4110   23.8560   13.0450 C.3    78  ASN78       0.1819
     60  C         31.2160   24.8480   13.8760 C.2    78  ASN78       0.2621
     61  O         30.7480   25.9470   14.1580 O.2    78  ASN78      -0.2715
     62  CB        29.8350   22.7850   13.9770 C.3    78  ASN78       0.1195
     63  CG        28.6660   22.0540   13.3660 C.2    78  ASN78       0.2630
     64  OD1       27.6050   22.6290   13.1500 O.2    78  ASN78      -0.2716
     65  ND2       28.8550   20.7770   13.0760 N.am   78  ASN78      -0.0877
     66  N         32.4210   24.4570   14.2760 N.am   79  THR79      -0.1951
     67  CA        33.2710   25.3170   15.0980 C.3    79  THR79       0.1897
     68  C         33.5580   26.6680   14.4430 C.2    79  THR79       0.2313
     69  O         33.3460   27.7220   15.0510 O.2    79  THR79      -0.2863
     70  CB        34.6130   24.6250   15.4170 C.3    79  THR79       0.1794
     71  OG1       34.3630   23.2900   15.8820 O.3    79  THR79      -0.2208
     72  CG2       35.3710   25.4100   16.4940 C.3    79  THR79       0.0378
     73  N         29.7370   16.7520   18.2620 N.3   121  THR121     -0.1218
     74  CA        30.8360   16.6900   19.2200 C.3   121  THR121      0.1862
     75  C         30.4180   17.3820   20.5120 C.2   121  THR121      0.2287
     76  O         29.4860   18.1830   20.5170 O.2   121  THR121     -0.2866
     77  CB        32.0730   17.4050   18.6780 C.3   121  THR121      0.1770
     78  OG1       31.7730   18.7970   18.5160 O.3   121  THR121     -0.2211
     79  CG2       32.4850   16.8090   17.3340 C.3   121  THR121      0.0375
     80  N         30.3110   21.1150   20.1290 N.3   124  THR124     -0.1218
     81  CA        29.1080   21.6240   19.4800 C.3   124  THR124      0.1862
     82  C         27.9250   21.5650   20.4470 C.2   124  THR124      0.2287
     83  O         27.1810   22.5350   20.6070 O.2   124  THR124     -0.2866
     84  CB        28.7570   20.8040   18.2270 C.3   124  THR124      0.1770
     85  OG1       29.7700   20.9930   17.2340 O.3   124  THR124     -0.2211
     86  CG2       27.4130   21.2490   17.6550 C.3   124  THR124      0.0375
     87  N         33.4950   10.9090   15.4750 N.3   152  VAL152     -0.1245
     88  CA        34.5120   11.5010   14.6050 C.3   152  VAL152      0.1561
     89  C         35.6780   10.5400   14.3980 C.2   152  VAL152      0.2260
     90  O         36.1560   10.3670   13.2740 O.2   152  VAL152     -0.2867
     91  CB        35.0340   12.8580   15.1700 C.3   152  VAL152      0.0252
     92  CG1       36.3670   13.2380   14.5210 C.3   152  VAL152      0.0019
     93  CG2       34.0060   13.9550   14.8850 C.3   152  VAL152      0.0019
     94  N         36.9430    9.2680   10.7330 N.3   156  GLU156     -0.1245
     95  CA        38.2770    9.6680   10.2960 C.3   156  GLU156      0.1567
     96  C         39.2180    8.4820   10.1210 C.2   156  GLU156      0.2260
     97  O         40.2020    8.5690    9.3880 O.2   156  GLU156     -0.2867
     98  CB        38.8810   10.6720   11.2800 C.3   156  GLU156      0.0388
     99  CG        38.6460   12.1140   10.8860 C.3   156  GLU156      0.1160
    100  CD        39.0550   13.0940   11.9630 C.2   156  GLU156      0.3649
    101  OE1       40.0040   12.7860   12.7200 O.co2 156  GLU156     -0.2457
    102  OE2       38.4340   14.1790   12.0420 O.co2 156  GLU156     -0.2457
    103  N         27.3200   17.3980   12.9960 N.3   188  CYS188     -0.1221
    104  CA        28.7560   17.2670   12.7770 C.3   188  CYS188      0.1808
    105  C         28.8910   16.8070   11.3320 C.2   188  CYS188      0.2602
    106  O         28.2480   15.8300   10.9350 O.2   188  CYS188     -0.2717
    107  CB        29.3500   16.2190   13.7220 C.3   188  CYS188      0.0970
    108  SG        31.0940   15.9120   13.4270 S.3   188  CYS188     -0.0800
    109  N         29.7100   17.4950   10.5360 N.am  189  THR189     -0.1939
    110  CA        29.8240   17.1170    9.1360 C.3   189  THR189      0.2028
    111  C         30.4900   15.7700    8.8800 C.2   189  THR189      0.2642
    112  O         30.5210   15.3130    7.7410 O.2   189  THR189     -0.2714
    113  CB        30.5150   18.2210    8.2920 C.3   189  THR189      0.1808
    114  OG1       31.7630   18.5740    8.8840 O.3   189  THR189     -0.2208
    115  CG2       29.6290   19.4580    8.2040 C.3   189  THR189      0.0379
    116  N         31.0200   15.1310    9.9230 N.am  190  HIS190     -0.1973
    117  CA        31.6180   13.8020    9.7550 C.3   190  HIS190      0.1656
    118  C         30.4870   12.7570    9.7420 C.2   190  HIS190      0.2291
    119  O         30.5980   11.7020    9.1120 O.2   190  HIS190     -0.2864
    120  CB        32.5370   13.4110   10.9350 C.3   190  HIS190      0.0771
    121  CG        33.9030   14.0340   10.9170 C.ar  190  HIS190      0.0820
    122  ND1       34.1270   15.3600   11.2220 N.ar  190  HIS190     -0.2267
    123  CD2       35.1270   13.4880   10.7090 C.ar  190  HIS190      0.1154
    124  CE1       35.4270   15.6030   11.2080 C.ar  190  HIS190      0.1986
    125  NE2       36.0560   14.4830   10.8990 N.ar  190  HIS190     -0.2212
@<TRIPOS>BOND
     1     1     2    1
     2    22    21    2
     3     5     2    1
     4     5     6    1
     5    18    17    2
     6    21    20    1
     7     2     3    1
     8     8     6   ar
     9     4     3    2
    10     6     7   ar
    11    17    16    1
    12   112   111    2
    13    19    20    1
    14     3     9   am
    15   115   113    1
    16   113   114    1
    17   113   110    1
    18    52    53    1
    19   111   110    1
    20   111   116   am
    21    16    15    1
    22   119   118    2
    23   110   109    1
    24     9    10    1
    25    15    11   am
    26    97    96    2
    27    11    12    2
    28    11    10    1
    29   118   117    1
    30   117   116    1
    31   117   120    1
    32    53    56    1
    33    53    54    1
    34    10    13    1
    35    96    95    1
    36    56    57    1
    37    95    94    1
    38    95    98    1
    39   109   105   am
    40    47    46    1
    41   123   125   ar
    42   123   121   ar
    43    99    98    1
    44    99   100    1
    45   125   124   ar
    46   121   120    1
    47   121   122   ar
    48   106   105    2
    49    55    54    2
    50    54    58   am
    51   124   122   ar
    52   105   104    1
    53    13    14    1
    54    46    45   ar
    55    46    44   ar
    56    58    59    1
    57   100   102   ar
    58   100   101   ar
    59    45    43   ar
    60    27    28    1
    61    27    24    1
    62    44    42   ar
    63   104   103    1
    64   104   107    1
    65    23    24    1
    66    59    60    1
    67    59    62    1
    68    65    63   am
    69    64    63    2
    70    43    41   ar
    71    90    89    2
    72    63    62    1
    73   108   107    1
    74    24    25    1
    75    42    41   ar
    76    60    61    2
    77    60    66   am
    78    41    40    1
    79    66    67    1
    80    89    88    1
    81    68    69    2
    82    68    67    1
    83    92    91    1
    84    88    91    1
    85    88    87    1
    86    25    26    2
    87    25    29   am
    88    93    91    1
    89    67    70    1
    90    40    37    1
    91    70    71    1
    92    70    72    1
    93    29    30    1
    94    29    35    1
    95    30    31    1
    96    30    33    1
    97    36    37    1
    98    36    31   am
    99    37    38    1
   100    31    32    2
   101    33    34    1
   102    35    34    1
   103    85    84    1
   104    79    77    1
   105    38    48   am
   106    38    39    2
   107    86    84    1
   108    48    49    1
   109    84    81    1
   110    73    74    1
   111    78    77    1
   112    77    74    1
   113    49    50    1
   114    74    75    1
   115    81    80    1
   116    81    82    1
   117    50    51    2
   118    82    83    2
   119    75    76    2
