@<TRIPOS>MOLECULE
tmp/2jfyB00.pdb
 113 109 0 0 0
SMALL
GASTEIGER

@<TRIPOS>ATOM
      1  N         15.2220   -9.0280   26.2660 N.3     7  ASP7       -0.1225
      2  CA        14.1450   -8.4440   25.4870 C.3     7  ASP7        0.1805
      3  C         14.7110   -7.5770   24.3770 C.2     7  ASP7        0.2598
      4  O         15.8690   -7.1640   24.4330 O.2     7  ASP7       -0.2718
      5  CB        13.2200   -7.5920   26.3480 C.3     7  ASP7        0.1424
      6  CG        12.0490   -7.0440   25.5520 C.2     7  ASP7        0.3668
      7  OD1       11.3700   -7.8530   24.8940 O.co2   7  ASP7       -0.2456
      8  OD2       11.8060   -5.8200   25.5690 O.co2   7  ASP7       -0.2456
      9  N         13.8890   -7.2960   23.3710 N.am    8  SER8       -0.1952
     10  CA        14.3310   -6.4640   22.2550 C.3     8  SER8        0.1924
     11  C         14.4960   -5.0050   22.6730 C.2     8  SER8        0.2314
     12  O         15.1670   -4.2300   21.9920 O.2     8  SER8       -0.2863
     13  CB        13.3430   -6.5670   21.0900 C.3     8  SER8        0.2116
     14  OG        12.0010   -6.3980   21.5260 O.3     8  SER8       -0.2180
     15  N         15.5700   -2.8340   18.2460 N.3    37  VAL37      -0.1231
     16  CA        14.1340   -2.9970   18.4410 C.3    37  VAL37       0.1678
     17  C         13.4430   -2.2230   17.3090 C.2    37  VAL37       0.2434
     18  O         13.9300   -1.1670   16.8960 O.2    37  VAL37      -0.2733
     19  CB        13.7130   -2.4510   19.8580 C.3    37  VAL37       0.0265
     20  CG1       13.9130   -0.9490   19.9300 C.3    37  VAL37       0.0020
     21  CG2       12.2670   -2.8320   20.1870 C.3    37  VAL37       0.0020
     22  N         12.3180   -2.7390   16.7770 N.am   38  PRO38      -0.2718
     23  CA        11.6000   -3.9760   17.1100 C.3    38  PRO38       0.1535
     24  C         12.0300   -5.2270   16.3430 C.2    38  PRO38       0.2599
     25  O         12.6320   -5.1510   15.2750 O.2    38  PRO38      -0.2715
     26  CB        10.1570   -3.6170   16.8000 C.3    38  PRO38       0.0310
     27  CG        10.3100   -2.8120   15.5350 C.3    38  PRO38       0.0237
     28  CD        11.5200   -1.9190   15.8410 C.3    38  PRO38       0.0939
     29  N         11.6900   -6.3800   16.9050 N.am   39  TYR39      -0.1960
     30  CA        11.9870   -7.6780   16.3020 C.3    39  TYR39       0.1771
     31  C         10.7830   -8.1950   15.5160 C.2    39  TYR39       0.2620
     32  O         10.9350   -8.8840   14.5110 O.2    39  TYR39      -0.2715
     33  CB        12.2740   -8.7120   17.3910 C.3    39  TYR39       0.0574
     34  CG        13.6260   -8.6380   18.0500 C.ar   39  TYR39      -0.0198
     35  CD1       14.4940   -7.5630   17.8270 C.ar   39  TYR39      -0.0009
     36  CD2       14.0340   -9.6500   18.9150 C.ar   39  TYR39      -0.0009
     37  CE1       15.7270   -7.5030   18.4500 C.ar   39  TYR39       0.0417
     38  CE2       15.2700   -9.5980   19.5480 C.ar   39  TYR39       0.0417
     39  CZ        16.1080   -8.5260   19.3110 C.ar   39  TYR39       0.1957
     40  OH        17.3230   -8.4830   19.9400 O.3    39  TYR39      -0.2866
     41  N          9.5910   -7.8590   16.0080 N.am   40  GLY40      -0.1954
     42  CA         8.3450   -8.3340   15.4300 C.3    40  GLY40       0.1869
     43  C          8.0360   -8.0920   13.9680 C.2    40  GLY40       0.2309
     44  O          7.2740   -8.8470   13.3740 O.2    40  GLY40      -0.2863
     45  N         10.9340  -11.5280   25.6390 N.3    70  CYS70      -0.1221
     46  CA        10.3750  -11.1730   24.3370 C.3    70  CYS70       0.1808
     47  C          9.5450  -12.3050   23.7370 C.2    70  CYS70       0.2601
     48  O         10.0340  -13.4200   23.5560 O.2    70  CYS70      -0.2717
     49  CB        11.4960  -10.7780   23.3670 C.3    70  CYS70       0.0970
     50  SG        10.8980  -10.2080   21.7390 S.3    70  CYS70      -0.0800
     51  N          8.2800  -12.0240   23.4460 N.am   71  ASN71      -0.1960
     52  CA         7.4090  -13.0320   22.8450 C.3    71  ASN71       0.1819
     53  C          7.8750  -13.3580   21.4250 C.2    71  ASN71       0.2621
     54  O          7.7400  -14.4920   20.9670 O.2    71  ASN71      -0.2715
     55  CB         5.9630  -12.5400   22.8160 C.3    71  ASN71       0.1195
     56  CG         5.3830  -12.3650   24.2060 C.2    71  ASN71       0.2630
     57  OD1        5.7770  -11.4630   24.9510 O.2    71  ASN71      -0.2716
     58  ND2        4.4390  -13.2290   24.5650 N.am   71  ASN71      -0.0877
     59  N          8.4290  -12.3700   20.7330 N.am   72  THR72      -0.1951
     60  CA         8.9170  -12.5920   19.3760 C.3    72  THR72       0.1897
     61  C         10.1550  -13.4790   19.3980 C.2    72  THR72       0.2313
     62  O         10.2270  -14.4690   18.6760 O.2    72  THR72      -0.2863
     63  CB         9.2620  -11.2660   18.6710 C.3    72  THR72       0.1794
     64  OG1        8.0710  -10.4930   18.5050 O.3    72  THR72      -0.2208
     65  CG2        9.8790  -11.5390   17.3040 C.3    72  THR72       0.0378
     66  N          3.0060   -9.8700   17.6480 N.3   116  THR116     -0.1218
     67  CA         3.6270   -9.1490   16.5400 C.3   116  THR116      0.1862
     68  C          3.3950   -9.9760   15.2670 C.2   116  THR116      0.2287
     69  O          2.9080  -11.1060   15.3340 O.2   116  THR116     -0.2866
     70  CB         5.1510   -8.9850   16.7530 C.3   116  THR116      0.1770
     71  OG1        5.7600  -10.2740   16.8470 O.3   116  THR116     -0.2211
     72  CG2        5.4400   -8.1960   18.0390 C.3   116  THR116      0.0375
     73  N          5.5850  -13.1220   15.4960 N.3   119  THR119     -0.1218
     74  CA         5.0850  -14.0750   16.4820 C.3   119  THR119      0.1862
     75  C          3.8910  -14.8490   15.9380 C.2   119  THR119      0.2287
     76  O          3.8410  -16.0740   16.0430 O.2   119  THR119     -0.2866
     77  CB         4.6540  -13.3670   17.7730 C.3   119  THR119      0.1770
     78  OG1        5.8170  -12.8450   18.4260 O.3   119  THR119     -0.2211
     79  CG2        3.9240  -14.3530   18.7070 C.3   119  THR119      0.0375
     80  N          2.6020   -1.9000   19.2740 N.3   146  VAL146     -0.1245
     81  CA         3.9570   -1.6920   19.7780 C.3   146  VAL146      0.1561
     82  C          4.4080   -0.2310   19.6970 C.2   146  VAL146      0.2260
     83  O          4.6910    0.3840   20.7330 O.2   146  VAL146     -0.2867
     84  CB         4.9830   -2.6070   19.0550 C.3   146  VAL146      0.0252
     85  CG1        6.3930   -2.2680   19.5010 C.3   146  VAL146      0.0019
     86  CG2        4.6920   -4.0540   19.3780 C.3   146  VAL146      0.0019
     87  N          0.1140  -11.8080   23.8150 N.3   180  GLY180     -0.1210
     88  CA         1.3460  -12.4130   23.3480 C.3   180  GLY180      0.1956
     89  C          2.4420  -11.4720   22.8790 C.2   180  GLY180      0.2612
     90  O          3.0790  -11.7330   21.8650 O.2   180  GLY180     -0.2717
     91  N          2.6630  -10.3960   23.6290 N.am  181  CYS181     -0.1956
     92  CA         3.6840   -9.3960   23.3220 C.3   181  CYS181      0.1843
     93  C          3.9850   -8.6540   24.6320 C.2   181  CYS181      0.2626
     94  O          3.0780   -8.4030   25.4220 O.2   181  CYS181     -0.2714
     95  CB         3.1460   -8.4190   22.2660 C.3   181  CYS181      0.0997
     96  SG         4.2450   -7.0490   21.7960 S.3   181  CYS181     -0.0797
     97  N          5.2530   -8.3070   24.8510 N.am  182  THR182     -0.1936
     98  CA         5.6830   -7.6080   26.0690 C.3   182  THR182      0.2028
     99  C          4.9580   -6.2930   26.3570 C.2   182  THR182      0.2642
    100  O          4.7600   -5.9180   27.5150 O.2   182  THR182     -0.2714
    101  CB         7.1830   -7.2370   26.0140 C.3   182  THR182      0.1808
    102  OG1        7.4660   -6.6090   24.7520 O.3   182  THR182     -0.2208
    103  CG2        8.0610   -8.4480   26.2090 C.3   182  THR182      0.0379
    104  N          4.6000   -5.5830   25.2920 N.am  183  HIS183     -0.1973
    105  CA         3.9650   -4.2730   25.3970 C.3   183  HIS183      0.1656
    106  C          2.4910   -4.2070   25.7860 C.2   183  HIS183      0.2291
    107  O          2.0550   -3.2420   26.4250 O.2   183  HIS183     -0.2864
    108  CB         4.1150   -3.5250   24.0550 C.3   183  HIS183      0.0771
    109  CG         5.5300   -3.1960   23.6820 C.ar  183  HIS183      0.0820
    110  ND1        6.5340   -4.1410   23.6370 N.ar  183  HIS183     -0.2267
    111  CD2        6.0960   -2.0270   23.2950 C.ar  183  HIS183      0.1154
    112  CE1        7.6570   -3.5680   23.2370 C.ar  183  HIS183      0.1986
    113  NE2        7.4180   -2.2870   23.0210 N.ar  183  HIS183     -0.2212
@<TRIPOS>BOND
     1    44    43    2
     2    43    42    1
     3    32    31    2
     4    68    69    2
     5    68    67    1
     6    25    24    2
     7    42    41    1
     8    73    74    1
     9    31    41   am
    10    31    30    1
    11    27    28    1
    12    27    26    1
    13    28    22    1
    14    75    76    2
    15    75    74    1
    16    30    29    1
    17    30    33    1
    18    24    29   am
    19    24    23    1
    20    74    77    1
    21    67    70    1
    22    67    66    1
    23    70    71    1
    24    70    72    1
    25    22    23    1
    26    22    17   am
    27    26    23    1
    28    18    17    2
    29    65    63    1
    30    17    16    1
    31    33    34    1
    32    77    78    1
    33    77    79    1
    34    35    34   ar
    35    35    37   ar
    36    34    36   ar
    37    15    16    1
    38    16    19    1
    39    37    39   ar
    40    64    63    1
    41    63    60    1
    42    62    61    2
    43    36    38   ar
    44    84    86    1
    45    84    85    1
    46    84    81    1
    47    80    81    1
    48    39    38   ar
    49    39    40    1
    50    60    61    1
    51    60    59    1
    52    82    81    1
    53    82    83    2
    54    19    20    1
    55    19    21    1
    56    59    53   am
    57    54    53    2
    58    13    14    1
    59    13    10    1
    60    53    52    1
    61    50    49    1
    62    96    95    1
    63    90    89    2
    64    12    11    2
    65    10    11    1
    66    10     9    1
    67    95    92    1
    68    55    52    1
    69    55    56    1
    70    52    51    1
    71    89    88    1
    72    89    91   am
    73   113   112   ar
    74   113   111   ar
    75   112   110   ar
    76   111   109   ar
    77    92    91    1
    78    92    93    1
    79    88    87    1
    80    49    46    1
    81     9     3   am
    82    51    47   am
    83    48    47    2
    84   110   109   ar
    85   109   108    1
    86    47    46    1
    87   108   105    1
    88    56    58   am
    89    56    57    2
    90    46    45    1
    91     3     4    2
    92     3     2    1
    93    93    97   am
    94    93    94    2
    95   102   101    1
    96    97    98    1
    97     7     6   ar
    98   104   105    1
    99   104    99   am
   100   105   106    1
   101     2     1    1
   102     2     5    1
   103     6     8   ar
   104     6     5    1
   105   106   107    2
   106   101    98    1
   107   101   103    1
   108    98    99    1
   109    99   100    2
