@<TRIPOS>MOLECULE
tmp/2jfzB00.pdb
 154 151 0 0 0
SMALL
GASTEIGER

@<TRIPOS>ATOM
      1  N         14.7310   87.0310   44.6080 N.3    10  VAL10      -0.1231
      2  CA        14.7930   88.2830   43.8480 C.3    10  VAL10       0.1692
      3  C         13.5460   88.4950   42.9950 C.2    10  VAL10       0.2592
      4  O         13.2670   89.6040   42.5500 O.2    10  VAL10      -0.2718
      5  CB        16.0350   88.3010   42.9310 C.3    10  VAL10       0.0266
      6  CG1       15.9560   87.1490   41.9480 C.3    10  VAL10       0.0020
      7  CG2       16.1480   89.6330   42.2000 C.3    10  VAL10       0.0020
      8  N         12.7940   87.4260   42.7680 N.am   11  GLY11      -0.1957
      9  CA        11.5910   87.5400   41.9570 C.3    11  GLY11       0.1869
     10  C         10.6340   88.6400   42.3730 C.2    11  GLY11       0.2309
     11  O         10.0040   89.2780   41.5240 O.2    11  GLY11      -0.2863
     12  N         11.0240   91.4260   42.9370 N.3    13  PHE13      -0.1227
     13  CA        11.3760   92.7130   42.3600 C.3    13  PHE13       0.1736
     14  C         10.2600   93.1840   41.4250 C.2    13  PHE13       0.2596
     15  O         10.0130   94.3800   41.3010 O.2    13  PHE13      -0.2718
     16  CB        12.7020   92.6200   41.5890 C.3    13  PHE13       0.0547
     17  CG        13.9290   92.8230   42.4460 C.ar   13  PHE13      -0.0202
     18  CD1       15.1330   93.2310   41.8680 C.ar   13  PHE13      -0.0042
     19  CD2       13.8830   92.6290   43.8230 C.ar   13  PHE13      -0.0042
     20  CE1       16.2720   93.4480   42.6510 C.ar   13  PHE13      -0.0003
     21  CE2       15.0130   92.8420   44.6140 C.ar   13  PHE13      -0.0003
     22  CZ        16.2100   93.2540   44.0250 C.ar   13  PHE13      -0.0000
     23  N          9.5800   92.2430   40.7750 N.am   14  SER14      -0.1952
     24  CA         8.4940   92.6000   39.8600 C.3    14  SER14       0.1924
     25  C          7.3800   93.3550   40.5870 C.2    14  SER14       0.2314
     26  O          6.6880   94.1870   39.9940 O.2    14  SER14      -0.2863
     27  CB         7.9180   91.3490   39.1870 C.3    14  SER14       0.2116
     28  OG         7.4050   90.4360   40.1350 O.3    14  SER14      -0.2180
     29  N          8.9840   96.8960   42.1290 N.3    17  LYS17      -0.1245
     30  CA         9.0690   97.9270   41.0990 C.3    17  LYS17       0.1561
     31  C          7.7690   98.7220   41.0380 C.2    17  LYS17       0.2260
     32  O          7.7880   99.9500   40.9850 O.2    17  LYS17      -0.2867
     33  CB         9.3490   97.2980   39.7330 C.3    17  LYS17       0.0271
     34  CG         9.3020   98.2910   38.5780 C.3    17  LYS17       0.0035
     35  CD         9.5680   97.6080   37.2450 C.3    17  LYS17       0.0206
     36  CE         9.4720   98.5860   36.0810 C.3    17  LYS17       0.1093
     37  NZ         9.8080   97.9250   34.7840 N.3    17  LYS17      -0.1314
     38  N         13.4710   82.0700   33.2310 N.3   149  ILE149     -0.1231
     39  CA        13.5450   83.5000   33.4990 C.3   149  ILE149      0.1692
     40  C         14.7420   83.8420   34.3860 C.2   149  ILE149      0.2592
     41  O         15.4030   84.8520   34.1720 O.2   149  ILE149     -0.2718
     42  CB        12.2110   83.9890   34.1300 C.3   149  ILE149      0.0266
     43  CG1       11.0990   83.8910   33.0710 C.3   149  ILE149      0.0019
     44  CG2       12.3520   85.4190   34.6470 C.3   149  ILE149      0.0020
     45  CD1        9.6940   84.0670   33.6080 C.3   149  ILE149      0.0001
     46  N         15.0410   82.9950   35.3660 N.am  150  GLU150     -0.1966
     47  CA        16.1800   83.2660   36.2350 C.3   150  GLU150      0.1733
     48  C         17.4910   83.1630   35.4620 C.2   150  GLU150      0.2616
     49  O         18.4840   83.7760   35.8440 O.2   150  GLU150     -0.2715
     50  CB        16.1820   82.3130   37.4410 C.3   150  GLU150      0.0429
     51  CG        14.8840   82.3710   38.2420 C.3   150  GLU150      0.1163
     52  CD        15.0240   81.8750   39.6730 C.2   150  GLU150      0.3649
     53  OE1       15.7280   80.8630   39.8870 O.co2 150  GLU150     -0.2457
     54  OE2       14.4140   82.4910   40.5810 O.co2 150  GLU150     -0.2457
     55  N         17.5000   82.4030   34.3700 N.am  151  GLU151     -0.1963
     56  CA        18.7120   82.2770   33.5710 C.3   151  GLU151      0.1733
     57  C         18.6950   83.2930   32.4360 C.2   151  GLU151      0.2617
     58  O         19.5150   83.2430   31.5220 O.2   151  GLU151     -0.2715
     59  CB        18.8630   80.8610   33.0060 C.3   151  GLU151      0.0429
     60  CG        20.2760   80.5980   32.5000 C.3   151  GLU151      0.1163
     61  CD        20.6150   79.1280   32.4030 C.2   151  GLU151      0.3649
     62  OE1       20.3070   78.3890   33.3620 O.co2 151  GLU151     -0.2457
     63  OE2       21.2040   78.7160   31.3780 O.co2 151  GLU151     -0.2457
     64  N         17.7460   84.2180   32.5140 N.am  152  SER152     -0.1950
     65  CA        17.5910   85.2770   31.5230 C.3   152  SER152      0.1924
     66  C         17.2740   84.7860   30.1080 C.2   152  SER152      0.2314
     67  O         17.7760   85.3390   29.1280 O.2   152  SER152     -0.2863
     68  CB        18.8430   86.1590   31.4860 C.3   152  SER152      0.2116
     69  OG        18.5470   87.4040   30.8720 O.3   152  SER152     -0.2180
     70  N         14.8020   85.1920   28.0740 N.3   154  LEU154     -0.1245
     71  CA        13.6290   86.0360   27.8610 C.3   154  LEU154      0.1561
     72  C         13.1880   86.2040   26.4130 C.2   154  LEU154      0.2260
     73  O         12.2580   86.9560   26.1250 O.2   154  LEU154     -0.2867
     74  CB        13.8910   87.4120   28.4750 C.3   154  LEU154      0.0270
     75  CG        14.3900   87.3350   29.9230 C.3   154  LEU154      0.0019
     76  CD1       14.6850   88.7280   30.4590 C.3   154  LEU154      0.0001
     77  CD2       13.3480   86.6400   30.7760 C.3   154  LEU154      0.0001
     78  N          5.7700   85.7960   40.3420 N.3   182  THR182     -0.1203
     79  CA         6.6710   86.9500   40.3290 C.3   182  THR182      0.1994
     80  C          7.5110   87.0850   39.0680 C.2   182  THR182      0.2617
     81  O          7.7750   88.1900   38.6040 O.2   182  THR182     -0.2717
     82  CB         7.6540   86.9020   41.5170 C.3   182  THR182      0.1784
     83  OG1        8.3060   85.6230   41.5460 O.3   182  THR182     -0.2211
     84  CG2        6.9180   87.1330   42.8320 C.3   182  THR182      0.0376
     85  N          7.9270   85.9530   38.5160 N.am  183  HIS183     -0.1975
     86  CA         8.7820   85.9340   37.3330 C.3   183  HIS183      0.1656
     87  C          8.1130   86.2020   35.9900 C.2   183  HIS183      0.2291
     88  O          8.7350   86.7570   35.0820 O.2   183  HIS183     -0.2864
     89  CB         9.4900   84.5770   37.2500 C.3   183  HIS183      0.0771
     90  CG        10.4130   84.3010   38.3960 C.ar  183  HIS183      0.0820
     91  ND1       10.0740   84.5580   39.7080 N.ar  183  HIS183     -0.2267
     92  CD2       11.6620   83.7740   38.4250 C.ar  183  HIS183      0.1154
     93  CE1       11.0760   84.2060   40.4950 C.ar  183  HIS183      0.1986
     94  NE2       12.0510   83.7280   39.7410 N.ar  183  HIS183     -0.2212
     95  N          6.0320   88.4090   34.6970 N.3   185  PRO185     -0.2102
     96  CA         5.9660   89.7010   34.0080 C.3   185  PRO185      0.1504
     97  C          7.1580   89.9070   33.0630 C.2   185  PRO185      0.2575
     98  O          7.0570   90.6400   32.0760 O.2   185  PRO185     -0.2718
     99  CB         5.9640   90.7020   35.1580 C.3   185  PRO185      0.0282
    100  CG         5.1860   89.9710   36.2100 C.3   185  PRO185      0.0208
    101  CD         5.7860   88.5770   36.1430 C.3   185  PRO185      0.0893
    102  N          8.2850   89.2570   33.3550 N.am  186  LEU186     -0.1980
    103  CA         9.4620   89.4100   32.5030 C.3   186  LEU186      0.1596
    104  C          9.2990   88.7960   31.1150 C.2   186  LEU186      0.2287
    105  O         10.1050   89.0600   30.2190 O.2   186  LEU186     -0.2864
    106  CB        10.7070   88.8440   33.1850 C.3   186  LEU186      0.0297
    107  CG        11.2680   89.7160   34.3120 C.3   186  LEU186      0.0022
    108  CD1       12.6010   89.1490   34.7880 C.3   186  LEU186      0.0001
    109  CD2       11.4540   91.1450   33.8000 C.3   186  LEU186      0.0001
    110  N         24.6510   89.9670   46.4210 N.3   238  TRP238     -0.1241
    111  CA        24.2070   89.7560   45.0460 C.3   238  TRP238      0.1605
    112  C         22.8450   90.4090   44.8500 C.2   238  TRP238      0.2264
    113  O         22.6160   91.1020   43.8590 O.2   238  TRP238     -0.2867
    114  CB        24.0780   88.2640   44.7290 C.3   238  TRP238      0.0550
    115  CG        23.5750   87.9990   43.3290 C.ar  238  TRP238      0.0003
    116  CD1       24.3210   87.9240   42.1840 C.ar  238  TRP238      0.0946
    117  CD2       22.2100   87.8060   42.9300 C.ar  238  TRP238      0.0152
    118  NE1       23.5060   87.6940   41.0970 N.ar  238  TRP238     -0.2442
    119  CE2       22.2060   87.6170   41.5270 C.ar  238  TRP238      0.0810
    120  CE3       20.9890   87.7750   43.6220 C.ar  238  TRP238      0.0012
    121  CZ2       21.0290   87.3980   40.8030 C.ar  238  TRP238      0.0191
    122  CZ3       19.8180   87.5580   42.9020 C.ar  238  TRP238      0.0001
    123  CH2       19.8470   87.3710   41.5040 C.ar  238  TRP238      0.0015
    124  N         21.6890   93.4110   42.3160 N.3   242  GLN242     -0.1245
    125  CA        20.5870   93.3100   41.3590 C.3   242  GLN242      0.1566
    126  C         19.6700   94.5180   41.5280 C.2   242  GLN242      0.2260
    127  O         19.1660   95.0710   40.5500 O.2   242  GLN242     -0.2867
    128  CB        19.7780   92.0270   41.5860 C.3   242  GLN242      0.0367
    129  CG        20.4580   90.7490   41.1190 C.3   242  GLN242      0.0905
    130  CD        20.7940   90.7680   39.6310 C.2   242  GLN242      0.2608
    131  OE1       19.9460   91.0770   38.7900 O.2   242  GLN242     -0.2717
    132  NE2       22.0320   90.4230   39.3040 N.am  242  GLN242     -0.0878
    133  N         18.8650   96.9180   38.4640 N.3   246  TRP246     -0.1227
    134  CA        17.5090   96.9970   37.9390 C.3   246  TRP246      0.1737
    135  C         16.5550   98.0000   38.5650 C.2   246  TRP246      0.2595
    136  O         15.6310   98.4680   37.8960 O.2   246  TRP246     -0.2718
    137  CB        16.8680   95.6100   37.9730 C.3   246  TRP246      0.0564
    138  CG        17.6390   94.6100   37.1970 C.ar  246  TRP246      0.0003
    139  CD1       18.5050   93.6770   37.6900 C.ar  246  TRP246      0.0946
    140  CD2       17.6500   94.4590   35.7750 C.ar  246  TRP246      0.0152
    141  NE1       19.0530   92.9540   36.6620 N.ar  246  TRP246     -0.2442
    142  CE2       18.5460   93.4120   35.4750 C.ar  246  TRP246      0.0810
    143  CE3       16.9880   95.1070   34.7230 C.ar  246  TRP246      0.0012
    144  CZ2       18.7990   92.9960   34.1670 C.ar  246  TRP246      0.0191
    145  CZ3       17.2390   94.6910   33.4160 C.ar  246  TRP246      0.0001
    146  CH2       18.1370   93.6460   33.1530 C.ar  246  TRP246      0.0015
    147  N         16.7620   98.3330   39.8330 N.am  247  LEU247     -0.1980
    148  CA        15.8780   99.2790   40.5080 C.3   247  LEU247      0.1596
    149  C         16.5880  100.6020   40.7660 C.2   247  LEU247      0.2287
    150  O         15.9710  101.5730   41.2130 O.2   247  LEU247     -0.2864
    151  CB        15.3920   98.6800   41.8320 C.3   247  LEU247      0.0297
    152  CG        14.7960   97.2690   41.7480 C.3   247  LEU247      0.0022
    153  CD1       14.5200   96.7310   43.1490 C.3   247  LEU247      0.0001
    154  CD2       13.5210   97.2990   40.9180 C.3   247  LEU247      0.0001
@<TRIPOS>BOND
     1    73    72    2
     2    72    71    1
     3    71    70    1
     4    71    74    1
     5    74    75    1
     6    67    66    2
     7    75    76    1
     8    75    77    1
     9    66    65    1
    10   105   104    2
    11    69    68    1
    12   104   103    1
    13    63    61   ar
    14    68    65    1
    15    58    57    2
    16    65    64    1
    17    98    97    2
    18    61    60    1
    19    61    62   ar
    20    57    64   am
    21    57    56    1
    22    60    59    1
    23   103   106    1
    24   103   102    1
    25    59    56    1
    26    97   102   am
    27    97    96    1
    28    43    45    1
    29    43    42    1
    30   146   145   ar
    31   146   144   ar
    32   106   107    1
    33    38    39    1
    34   145   143   ar
    35    39    42    1
    36    39    40    1
    37    56    55    1
    38   109   107    1
    39    96    95    1
    40    96    99    1
    41    42    44    1
    42   144   142   ar
    43    41    40    2
    44   107   108    1
    45    55    48   am
    46    40    46   am
    47    95   101    1
    48   143   140   ar
    49    37    36    1
    50    88    87    2
    51    99   100    1
    52    46    47    1
    53    48    49    2
    54    48    47    1
    55   142   140   ar
    56   142   141   ar
    57   140   138   ar
    58    87    86    1
    59    36    35    1
    60   101   100    1
    61    47    50    1
    62   141   139   ar
    63   138   139   ar
    64   138   137    1
    65    35    34    1
    66    89    86    1
    67    89    90    1
    68    86    85    1
    69    50    51    1
    70   136   135    2
    71   134   137    1
    72   134   133    1
    73   134   135    1
    74    51    52    1
    75    90    92   ar
    76    90    91   ar
    77    92    94   ar
    78    85    80   am
    79   135   147   am
    80    34    33    1
    81    81    80    2
    82   131   130    2
    83    80    79    1
    84    27    24    1
    85    27    28    1
    86   132   130   am
    87   130   129    1
    88    52    53   ar
    89    52    54   ar
    90    91    93   ar
    91    33    30    1
    92    94    93   ar
    93   147   148    1
    94    24    25    1
    95    24    23    1
    96    26    25    2
    97    79    78    1
    98    79    82    1
    99   148   149    1
   100   148   151    1
   101   127   126    2
   102   149   150    2
   103    23    14   am
   104   121   123   ar
   105   121   119   ar
   106   154   152    1
   107    32    31    2
   108    31    30    1
   109   118   119   ar
   110   118   116   ar
   111    30    29    1
   112   129   128    1
   113    15    14    2
   114   125   126    1
   115   125   128    1
   116   125   124    1
   117    14    13    1
   118   123   122   ar
   119    82    83    1
   120    82    84    1
   121    11    10    2
   122   119   117   ar
   123    16    13    1
   124    16    17    1
   125   152   151    1
   126   152   153    1
   127    18    17   ar
   128    18    20   ar
   129     6     5    1
   130     9    10    1
   131     9     8    1
   132   116   115   ar
   133     7     5    1
   134    13    12    1
   135    17    19   ar
   136     4     3    2
   137    20    22   ar
   138     8     3   am
   139   122   120   ar
   140   117   115   ar
   141   117   120   ar
   142     5     2    1
   143     3     2    1
   144   115   114    1
   145    19    21   ar
   146     2     1    1
   147   113   112    2
   148    22    21   ar
   149   114   111    1
   150   112   111    1
   151   111   110    1
