@<TRIPOS>MOLECULE
tmp/2jg0A00.pdb
 247 241 0 0 0
SMALL
GASTEIGER

@<TRIPOS>ATOM
      1  N         19.0590   58.3790    3.4700 N.3    25  LYS25      -0.1245
      2  CA        18.0810   58.6090    4.5240 C.3    25  LYS25       0.1561
      3  C         17.7910   60.0940    4.7060 C.2    25  LYS25       0.2260
      4  O         16.7430   60.4580    5.2370 O.2    25  LYS25      -0.2867
      5  CB        18.5310   57.9740    5.8470 C.3    25  LYS25       0.0271
      6  CG        17.4570   57.9090    6.9160 C.3    25  LYS25       0.0035
      7  CD        17.8970   57.0820    8.0860 C.3    25  LYS25       0.0206
      8  CE        16.8170   57.0170    9.1570 C.3    25  LYS25       0.1093
      9  NZ        16.6450   58.3270    9.8660 N.3    25  LYS25      -0.1314
     10  N         18.5620   55.4450   18.7010 N.3   109  PRO109     -0.2116
     11  CA        19.9080   54.8240   18.7670 C.3   109  PRO109      0.1372
     12  C         21.0550   55.7990   18.7110 C.2   109  PRO109      0.2244
     13  O         22.0370   55.6000   19.4050 O.2   109  PRO109     -0.2868
     14  CB        19.9210   53.9110   17.5480 C.3   109  PRO109      0.0268
     15  CG        18.4880   53.5910   17.2950 C.3   109  PRO109      0.0207
     16  CD        17.7950   54.9220   17.5620 C.3   109  PRO109      0.0892
     17  N         22.5060   58.8250   12.4580 N.3   112  ARG112     -0.1231
     18  CA        21.4600   58.9120   11.4390 C.3   112  ARG112      0.1694
     19  C         20.1180   58.3250   11.8980 C.2   112  ARG112      0.2592
     20  O         19.0990   58.5030   11.2230 O.2   112  ARG112     -0.2718
     21  CB        21.9220   58.2250   10.1480 C.3   112  ARG112      0.0321
     22  CG        21.9540   56.7200   10.2640 C.3   112  ARG112      0.0489
     23  CD        22.7480   56.0320    9.1850 C.3   112  ARG112      0.2205
     24  NE        22.1520   56.1010    7.8480 N.pl3 112  ARG112     -0.0865
     25  CZ        21.4160   55.1470    7.2720 C.cat 112  ARG112      0.5346
     26  NH1       21.1030   54.0310    7.9020 N.pl3 112  ARG112      0.1354
     27  NH2       20.9900   55.3050    6.0330 N.pl3 112  ARG112      0.1354
     28  N         20.1310   57.5920   13.0080 N.am  113  PHE113     -0.1976
     29  CA        18.9360   56.9500   13.5150 C.3   113  PHE113      0.1639
     30  C         18.2960   57.9270   14.4740 C.2   113  PHE113      0.2290
     31  O         18.5920   57.9470   15.6900 O.2   113  PHE113     -0.2864
     32  CB        19.2900   55.6020   14.1420 C.3   113  PHE113      0.0560
     33  CG        19.9480   54.6730   13.1580 C.ar  113  PHE113     -0.0200
     34  CD1       19.3020   54.3590   11.9800 C.ar  113  PHE113     -0.0042
     35  CD2       21.2000   54.1300   13.3890 C.ar  113  PHE113     -0.0042
     36  CE1       19.8700   53.5050   11.0810 C.ar  113  PHE113     -0.0003
     37  CE2       21.7760   53.2930   12.4760 C.ar  113  PHE113     -0.0003
     38  CZ        21.1300   52.9890   11.3140 C.ar  113  PHE113     -0.0000
     39  N         13.4830   52.8900   17.3310 N.3   117  TYR117     -0.1241
     40  CA        13.5320   51.5860   16.6550 C.3   117  TYR117      0.1605
     41  C         12.9720   50.5410   17.5720 C.2   117  TYR117      0.2264
     42  O         13.0900   50.6290   18.8030 O.2   117  TYR117     -0.2867
     43  CB        14.9640   51.2210   16.2380 C.3   117  TYR117      0.0534
     44  CG        15.3160   51.9770   14.9860 C.ar  117  TYR117     -0.0201
     45  CD1       15.7010   53.3230   15.0560 C.ar  117  TYR117     -0.0009
     46  CD2       15.1320   51.4080   13.7260 C.ar  117  TYR117     -0.0009
     47  CE1       15.9280   54.0680   13.8940 C.ar  117  TYR117      0.0417
     48  CE2       15.3540   52.1230   12.5730 C.ar  117  TYR117      0.0417
     49  CZ        15.7340   53.4640   12.6450 C.ar  117  TYR117      0.1957
     50  OH        15.9460   54.2190   11.5200 O.3   117  TYR117     -0.2866
     51  N         13.3840   46.7910   18.0180 N.3   119  TRP119     -0.1227
     52  CA        14.1260   45.8810   18.8920 C.3   119  TRP119      0.1737
     53  C         15.2200   46.5920   19.6640 C.2   119  TRP119      0.2595
     54  O         15.4790   46.2410   20.8000 O.2   119  TRP119     -0.2718
     55  CB        14.6000   44.5830   18.2320 C.3   119  TRP119      0.0564
     56  CG        15.7240   44.6140   17.2300 C.ar  119  TRP119      0.0003
     57  CD1       15.9640   45.5370   16.2520 C.ar  119  TRP119      0.0946
     58  CD2       16.7080   43.5870   17.0670 C.ar  119  TRP119      0.0152
     59  NE1       17.0500   45.1390   15.4860 N.ar  119  TRP119     -0.2442
     60  CE2       17.5040   43.9420   15.9600 C.ar  119  TRP119      0.0810
     61  CE3       16.9720   42.3850   17.7270 C.ar  119  TRP119      0.0012
     62  CZ2       18.5690   43.1650   15.5390 C.ar  119  TRP119      0.0191
     63  CZ3       18.0410   41.6410   17.3210 C.ar  119  TRP119      0.0001
     64  CH2       18.8090   42.0210   16.2350 C.ar  119  TRP119      0.0015
     65  N         15.7810   47.6610   19.0910 N.am  120  ASP120     -0.1974
     66  CA        16.8160   48.4220   19.8290 C.3   120  ASP120      0.1709
     67  C         16.2920   48.8660   21.1640 C.2   120  ASP120      0.2293
     68  O         17.0400   48.9190   22.1490 O.2   120  ASP120     -0.2864
     69  CB        17.2780   49.6710   19.0950 C.3   120  ASP120      0.1436
     70  CG        17.8500   49.3780   17.7240 C.2   120  ASP120      0.3671
     71  OD1       19.0020   49.7790   17.4650 O.co2 120  ASP120     -0.2456
     72  OD2       17.1170   48.7810   16.9260 O.co2 120  ASP120     -0.2456
     73  N          9.1240   49.2810   12.0920 N.3   156  ASN156     -0.1240
     74  CA        10.5730   49.2120   12.2700 C.3   156  ASN156      0.1653
     75  C         11.0980   50.3900   13.1030 C.2   156  ASN156      0.2266
     76  O         11.9230   50.2100   13.9790 O.2   156  ASN156     -0.2867
     77  CB        11.1640   49.1180   10.8710 C.3   156  ASN156      0.1155
     78  CG        12.6830   48.9770   10.7950 C.2   156  ASN156      0.2627
     79  OD1       13.5060   49.3920   11.6500 O.2   156  ASN156     -0.2716
     80  ND2       13.0590   48.4660    9.6750 N.am  156  ASN156     -0.0877
     81  N          8.6860   53.2030    7.3510 N.3   162  TYR162     -0.1241
     82  CA         8.7780   51.9610    8.0870 C.3   162  TYR162      0.1605
     83  C          7.4370   51.2910    8.3880 C.2   162  TYR162      0.2264
     84  O          7.4070   50.2240    8.9900 O.2   162  TYR162     -0.2867
     85  CB         9.4890   52.2160    9.4170 C.3   162  TYR162      0.0534
     86  CG        10.9610   52.5220    9.3390 C.ar  162  TYR162     -0.0201
     87  CD1       11.7480   52.0270    8.3180 C.ar  162  TYR162     -0.0009
     88  CD2       11.5540   53.3680   10.2760 C.ar  162  TYR162     -0.0009
     89  CE1       13.1200   52.3300    8.2550 C.ar  162  TYR162      0.0417
     90  CE2       12.9370   53.6540   10.2300 C.ar  162  TYR162      0.0417
     91  CZ        13.7010   53.1220    9.2190 C.ar  162  TYR162      0.1957
     92  OH        15.0560   53.3940    9.1360 O.3   162  TYR162     -0.2866
     93  N          6.5060   47.4460    7.5790 N.3   165  ARG165     -0.1245
     94  CA         7.1470   46.3200    8.2620 C.3   165  ARG165      0.1563
     95  C          7.2580   46.5850    9.7530 C.2   165  ARG165      0.2260
     96  O          6.9750   47.6880   10.2430 O.2   165  ARG165     -0.2867
     97  CB         8.5070   46.0540    7.6420 C.3   165  ARG165      0.0307
     98  CG         9.4700   47.2290    7.6980 C.3   165  ARG165      0.0489
     99  CD        10.8590   46.7920    7.2030 C.3   165  ARG165      0.2205
    100  NE        11.8240   47.8810    7.1160 N.pl3 165  ARG165     -0.0865
    101  CZ        11.9400   48.7070    6.0690 C.cat 165  ARG165      0.5346
    102  NH1       11.1700   48.5630    4.9980 N.pl3 165  ARG165      0.1354
    103  NH2       12.8840   49.6370    6.0720 N.pl3 165  ARG165      0.1354
    104  N          9.8420   44.6820   13.1410 N.3   167  GLN167     -0.1245
    105  CA        11.1940   44.3110   13.4460 C.3   167  GLN167      0.1566
    106  C         11.0970   43.1090   14.3950 C.2   167  GLN167      0.2260
    107  O         10.0000   42.6550   14.7110 O.2   167  GLN167     -0.2867
    108  CB        11.9510   45.5050   14.0660 C.3   167  GLN167      0.0367
    109  CG        13.1070   46.0440   13.1800 C.3   167  GLN167      0.0905
    110  CD        14.0400   46.9810   13.9000 C.2   167  GLN167      0.2608
    111  OE1       13.7340   47.4230   14.9980 O.2   167  GLN167     -0.2717
    112  NE2       15.2540   47.2220   13.3230 N.am  167  GLN167     -0.0878
    113  N         13.4680   50.6980   -0.9220 N.3   237  ARG237     -0.1245
    114  CA        13.2820   51.3860    0.3570 C.3   237  ARG237      0.1563
    115  C         13.4950   52.8870    0.1380 C.2   237  ARG237      0.2260
    116  O         14.5450   53.2700   -0.3440 O.2   237  ARG237     -0.2867
    117  CB        14.3270   50.9190    1.3790 C.3   237  ARG237      0.0307
    118  CG        14.0340   49.5040    1.9030 C.3   237  ARG237      0.0489
    119  CD        15.1640   48.9670    2.7820 C.3   237  ARG237      0.2205
    120  NE        16.3700   48.8180    1.9920 N.pl3 237  ARG237     -0.0865
    121  CZ        17.6110   48.8800    2.4480 C.cat 237  ARG237      0.5346
    122  NH1       17.8690   49.1020    3.7290 N.pl3 237  ARG237      0.1354
    123  NH2       18.6020   48.7650    1.5910 N.pl3 237  ARG237      0.1354
    124  N         14.4400   55.0910    2.1500 N.3   239  GLU239     -0.1231
    125  CA        15.6230   55.5030    2.8810 C.3   239  GLU239      0.1699
    126  C         16.9350   54.9430    2.3210 C.2   239  GLU239      0.2592
    127  O         17.9940   55.4050    2.7050 O.2   239  GLU239     -0.2718
    128  CB        15.4850   55.1840    4.3800 C.3   239  GLU239      0.0402
    129  CG        15.5730   53.7110    4.7600 C.3   239  GLU239      0.1161
    130  CD        14.3510   52.8400    4.4750 C.2   239  GLU239      0.3649
    131  OE1       13.3820   53.2820    3.8290 O.co2 239  GLU239     -0.2457
    132  OE2       14.3770   51.6660    4.8980 O.co2 239  GLU239     -0.2457
    133  N         16.8310   53.9980    1.3870 N.am  240  SER240     -0.1952
    134  CA        17.9790   53.3940    0.7000 C.3   240  SER240      0.1924
    135  C         17.6520   53.2070   -0.7910 C.2   240  SER240      0.2314
    136  O         17.9020   52.1460   -1.3790 O.2   240  SER240     -0.2863
    137  CB        18.3240   52.0470    1.3400 C.3   240  SER240      0.2116
    138  OG        18.6920   52.2200    2.6990 O.3   240  SER240     -0.2180
    139  N         15.4640   44.0950    6.2830 N.3   267  ALA267     -0.1245
    140  CA        15.3820   45.2080    7.2090 C.3   267  ALA267      0.1562
    141  C         14.4490   44.8580    8.3610 C.2   267  ALA267      0.2260
    142  O         14.7410   45.1430    9.5140 O.2   267  ALA267     -0.2867
    143  CB        14.9680   46.5130    6.5120 C.3   267  ALA267      0.0290
    144  N         15.9260   42.9490   11.2150 N.3   270  GLY270     -0.1225
    145  CA        16.9420   43.6170   12.0210 C.3   270  GLY270      0.1811
    146  C         18.3540   43.4150   11.4720 C.2   270  GLY270      0.2280
    147  O         19.2650   44.1810   11.7740 O.2   270  GLY270     -0.2866
    148  N         19.8060   43.7180    8.4560 N.3   272  ASP272     -0.1239
    149  CA        20.1060   44.2850    7.1410 C.3   272  ASP272      0.1674
    150  C         21.5660   44.7020    7.1500 C.2   272  ASP272      0.2266
    151  O         21.8660   45.6860    7.7740 O.2   272  ASP272     -0.2867
    152  CB        19.2170   45.5020    6.7920 C.3   272  ASP272      0.1410
    153  CG        19.0390   46.4640    7.9310 C.2   272  ASP272      0.3668
    154  OD1       18.5760   46.0330    9.0170 O.co2 272  ASP272     -0.2456
    155  OD2       19.3280   47.6750    7.7340 O.co2 272  ASP272     -0.2456
    156  N         27.1810   44.1610    7.3190 N.3   406  GLN406     -0.1231
    157  CA        27.4310   44.4680    8.7210 C.3   406  GLN406      0.1698
    158  C         26.9700   43.3930    9.6890 C.2   406  GLN406      0.2592
    159  O         27.4570   43.3590   10.7910 O.2   406  GLN406     -0.2718
    160  CB        26.8610   45.8410    9.0950 C.3   406  GLN406      0.0381
    161  CG        25.3320   45.9290    9.0120 C.3   406  GLN406      0.0905
    162  CD        24.8250   47.2600    9.4890 C.2   406  GLN406      0.2608
    163  OE1       25.5750   48.0550   10.0910 O.2   406  GLN406     -0.2717
    164  NE2       23.5630   47.5350    9.2240 N.am  406  GLN406     -0.0878
    165  N         25.9610   42.6010    9.3330 N.am  407  TRP407     -0.1976
    166  CA        25.5570   41.4910   10.1980 C.3   407  TRP407      0.1640
    167  C         26.2890   40.2090    9.8110 C.2   407  TRP407      0.2290
    168  O         25.7400   39.2830    9.2630 O.2   407  TRP407     -0.2864
    169  CB        24.0320   41.2840   10.1990 C.3   407  TRP407      0.0576
    170  CG        23.3050   42.4240   10.8620 C.ar  407  TRP407      0.0006
    171  CD1       22.9090   43.5940   10.2760 C.ar  407  TRP407      0.0946
    172  CD2       22.9480   42.5460   12.2620 C.ar  407  TRP407      0.0152
    173  NE1       22.3160   44.4190   11.1940 N.ar  407  TRP407     -0.2442
    174  CE2       22.2990   43.7960   12.4150 C.ar  407  TRP407      0.0810
    175  CE3       23.0690   41.7140   13.3790 C.ar  407  TRP407      0.0012
    176  CZ2       21.8450   44.2490   13.6400 C.ar  407  TRP407      0.0191
    177  CZ3       22.5920   42.1770   14.5920 C.ar  407  TRP407      0.0001
    178  CH2       21.9910   43.4200   14.7130 C.ar  407  TRP407      0.0015
    179  N         27.4680   42.6050   17.6870 N.3   413  TRP413     -0.1241
    180  CA        26.4060   43.5210   17.9930 C.3   413  TRP413      0.1605
    181  C         25.9120   43.2830   19.4040 C.2   413  TRP413      0.2264
    182  O         25.5820   42.1490   19.7720 O.2   413  TRP413     -0.2867
    183  CB        25.2770   43.3140   17.0090 C.3   413  TRP413      0.0550
    184  CG        25.5860   43.7010   15.5940 C.ar  413  TRP413      0.0003
    185  CD1       26.2940   42.9960   14.6700 C.ar  413  TRP413      0.0946
    186  CD2       25.1670   44.9120   14.9520 C.ar  413  TRP413      0.0152
    187  NE1       26.3030   43.6830   13.4710 N.ar  413  TRP413     -0.2442
    188  CE2       25.6050   44.8560   13.6230 C.ar  413  TRP413      0.0810
    189  CE3       24.3980   46.0160   15.3660 C.ar  413  TRP413      0.0012
    190  CZ2       25.3210   45.8860   12.7030 C.ar  413  TRP413      0.0191
    191  CZ3       24.1040   47.0030   14.4700 C.ar  413  TRP413      0.0001
    192  CH2       24.5600   46.9410   13.1430 C.ar  413  TRP413      0.0015
    193  N         27.8300   51.5170   17.2900 N.3   456  GLU456     -0.1245
    194  CA        26.7460   50.6200   16.8570 C.3   456  GLU456      0.1567
    195  C         27.0870   49.1250   16.8700 C.2   456  GLU456      0.2260
    196  O         26.2410   48.2900   17.1780 O.2   456  GLU456     -0.2867
    197  CB        26.3570   51.0850   15.4610 C.3   456  GLU456      0.0388
    198  CG        25.3020   50.2970   14.7330 C.3   456  GLU456      0.1160
    199  CD        25.1500   50.7440   13.2950 C.2   456  GLU456      0.3649
    200  OE1       24.0650   50.4670   12.7130 O.co2 456  GLU456     -0.2457
    201  OE2       26.1120   51.3520   12.7500 O.co2 456  GLU456     -0.2457
    202  N         25.7350   49.3800    3.8970 N.3   471  GLU471     -0.1231
    203  CA        25.3950   50.5360    3.0510 C.3   471  GLU471      0.1699
    204  C         25.5460   51.8850    3.7320 C.2   471  GLU471      0.2592
    205  O         25.3550   52.9160    3.1070 O.2   471  GLU471     -0.2718
    206  CB        23.9640   50.4320    2.5230 C.3   471  GLU471      0.0402
    207  CG        22.9020   50.5920    3.6230 C.3   471  GLU471      0.1161
    208  CD        21.5090   50.2030    3.2090 C.2   471  GLU471      0.3649
    209  OE1       21.2930   49.7450    2.0720 O.co2 471  GLU471     -0.2457
    210  OE2       20.5870   50.4360    4.0240 O.co2 471  GLU471     -0.2457
    211  N         25.8690   51.9060    5.0180 N.am  472  TYR472     -0.1976
    212  CA        26.1210   53.1920    5.6960 C.3   472  TYR472      0.1639
    213  C         27.2710   53.0560    6.6950 C.2   472  TYR472      0.2290
    214  O         27.6350   51.9440    7.0600 O.2   472  TYR472     -0.2864
    215  CB        24.8420   53.6890    6.3770 C.3   472  TYR472      0.0560
    216  CG        24.3350   52.7410    7.4480 C.ar  472  TYR472     -0.0198
    217  CD1       24.8470   52.8040    8.7430 C.ar  472  TYR472     -0.0009
    218  CD2       23.3270   51.8210    7.1790 C.ar  472  TYR472     -0.0009
    219  CE1       24.4150   51.9480    9.7280 C.ar  472  TYR472      0.0417
    220  CE2       22.8670   50.9550    8.1740 C.ar  472  TYR472      0.0417
    221  CZ        23.4440   51.0120    9.4400 C.ar  472  TYR472      0.1957
    222  OH        23.0250   50.1800   10.4510 O.3   472  TYR472     -0.2866
    223  N         25.5000   54.6310   21.6640 N.3   478  PHE478     -0.1241
    224  CA        24.5920   54.0690   20.6880 C.3   478  PHE478      0.1605
    225  C         23.6170   53.2140   21.4770 C.2   478  PHE478      0.2264
    226  O         24.0290   52.3210   22.2010 O.2   478  PHE478     -0.2867
    227  CB        25.3100   53.2030   19.6650 C.3   478  PHE478      0.0534
    228  CG        24.4220   52.8450   18.4820 C.ar  478  PHE478     -0.0203
    229  CD1       24.2850   53.7270   17.4270 C.ar  478  PHE478     -0.0042
    230  CD2       23.6860   51.6590   18.4680 C.ar  478  PHE478     -0.0042
    231  CE1       23.4460   53.4210   16.3750 C.ar  478  PHE478     -0.0003
    232  CE2       22.8560   51.3410   17.4180 C.ar  478  PHE478     -0.0003
    233  CZ        22.7320   52.2210   16.3620 C.ar  478  PHE478     -0.0000
    234  N         21.4570   50.5760   21.9900 N.3   480  TRP480     -0.1241
    235  CA        21.5280   49.2130   22.5450 C.3   480  TRP480      0.1605
    236  C         22.9110   48.8400   23.0450 C.2   480  TRP480      0.2264
    237  O         23.0200   47.9870   23.9110 O.2   480  TRP480     -0.2867
    238  CB        21.0530   48.1070   21.6100 C.3   480  TRP480      0.0550
    239  CG        21.6170   47.9730   20.2440 C.ar  480  TRP480      0.0003
    240  CD1       22.8510   48.3320   19.7560 C.ar  480  TRP480      0.0946
    241  CD2       20.9690   47.2700   19.2030 C.ar  480  TRP480      0.0152
    242  NE1       22.9610   47.9480   18.4110 N.ar  480  TRP480     -0.2442
    243  CE2       21.7890   47.3050   18.0670 C.ar  480  TRP480      0.0810
    244  CE3       19.7380   46.6180   19.1220 C.ar  480  TRP480      0.0012
    245  CZ2       21.3810   46.7270   16.8600 C.ar  480  TRP480      0.0191
    246  CZ3       19.3360   46.0600   17.9280 C.ar  480  TRP480      0.0001
    247  CH2       20.1590   46.0960   16.8260 C.ar  480  TRP480      0.0015
@<TRIPOS>BOND
     1   136   135    2
     2   113   114    1
     3   135   134    1
     4   116   115    2
     5   115   114    1
     6   114   117    1
     7   134   137    1
     8   134   133    1
     9   137   138    1
    10   117   118    1
    11   133   126   am
    12   123   121    1
    13   118   119    1
    14   120   121    2
    15   120   119    1
    16   209   208   ar
    17   124   125    1
    18   126   127    2
    19   126   125    1
    20   121   122    1
    21   206   203    1
    22   206   207    1
    23   125   128    1
    24   203   204    1
    25   203   202    1
    26   205   204    2
    27   208   207    1
    28   208   210   ar
    29     1     2    1
    30   204   211   am
    31   131   130   ar
    32   128   129    1
    33   130   129    1
    34   130   132   ar
    35     2     3    1
    36     2     5    1
    37     3     4    2
    38   102   101    1
    39   211   212    1
    40   212   215    1
    41   212   213    1
    42     5     6    1
    43    27    25    1
    44   101   103    1
    45   101   100    2
    46   139   140    1
    47   215   216    1
    48   143   140    1
    49   213   214    2
    50   152   149    1
    51   152   153    1
    52     6     7    1
    53   100    99    1
    54   149   150    1
    55   149   148    1
    56   150   151    2
    57   218   216   ar
    58   218   220   ar
    59    99    98    1
    60   140   141    1
    61    25    24    2
    62    25    26    1
    63   156   157    1
    64    81    82    1
    65   216   217   ar
    66    93    94    1
    67    97    98    1
    68    97    94    1
    69   155   153   ar
    70    24    23    1
    71   153   154   ar
    72     7     8    1
    73    82    83    1
    74    82    85    1
    75   220   221   ar
    76    89    87   ar
    77    89    91   ar
    78    94    95    1
    79    87    86   ar
    80   141   142    2
    81    83    84    2
    82   157   160    1
    83   157   158    1
    84   217   219   ar
    85   161   160    1
    86   161   162    1
    87    92    91    1
    88     8     9    1
    89    23    22    1
    90    91    90   ar
    91   164   162   am
    92   168   167    2
    93   165   158   am
    94   165   166    1
    95    86    85    1
    96    86    88   ar
    97   221   219   ar
    98   221   222    1
    99   162   163    2
   100    80    78   am
   101   158   159    2
   102    95    96    2
   103   167   166    1
   104    21    22    1
   105    21    18    1
   106   166   169    1
   107   169   170    1
   108    90    88   ar
   109   171   170   ar
   110   171   173   ar
   111    78    77    1
   112    78    79    2
   113   170   172   ar
   114    77    74    1
   115    36    38   ar
   116    36    34   ar
   117   173   174   ar
   118   144   145    1
   119    20    19    2
   120    38    37   ar
   121    18    19    1
   122    18    17    1
   123   146   147    2
   124   146   145    1
   125    50    49    1
   126    19    28   am
   127    34    33   ar
   128    73    74    1
   129   172   174   ar
   130   172   175   ar
   131    74    75    1
   132   174   176   ar
   133    37    35   ar
   134    48    49   ar
   135    48    46   ar
   136    49    47   ar
   137   190   192   ar
   138   190   188   ar
   139   200   199   ar
   140   201   199   ar
   141    28    29    1
   142    75    76    2
   143   104   105    1
   144   192   191   ar
   145    33    35   ar
   146    33    32    1
   147   109   110    1
   148   109   108    1
   149   199   198    1
   150   112   110   am
   151   175   177   ar
   152   105   108    1
   153   105   106    1
   154   187   188   ar
   155   187   185   ar
   156    29    32    1
   157    29    30    1
   158   188   186   ar
   159   176   178   ar
   160    46    44   ar
   161    47    45   ar
   162   110   111    2
   163   106   107    2
   164   191   189   ar
   165    30    31    2
   166   177   178   ar
   167   185   184   ar
   168   198   197    1
   169   186   189   ar
   170   186   184   ar
   171    44    45   ar
   172    44    43    1
   173   197   194    1
   174    59    60   ar
   175    59    57   ar
   176    62    60   ar
   177    62    64   ar
   178   184   183    1
   179    60    58   ar
   180    64    63   ar
   181    43    40    1
   182    57    56   ar
   183   233   231   ar
   184   233   232   ar
   185   231   229   ar
   186    40    39    1
   187    40    41    1
   188   247   245   ar
   189   247   246   ar
   190   194   195    1
   191   194   193    1
   192   245   243   ar
   193   195   196    2
   194    72    70   ar
   195   183   180    1
   196    58    56   ar
   197    58    61   ar
   198    56    55    1
   199    15    14    1
   200    15    16    1
   201    63    61   ar
   202   232   230   ar
   203   229   228   ar
   204    71    70   ar
   205    14    11    1
   206    16    10    1
   207    41    42    2
   208   179   180    1
   209    70    69    1
   210   246   244   ar
   211   180   181    1
   212    51    52    1
   213   243   242   ar
   214   243   241   ar
   215    55    52    1
   216   242   240   ar
   217   230   228   ar
   218   228   227    1
   219    10    11    1
   220    12    11    1
   221    12    13    2
   222    52    53    1
   223    65    53   am
   224    65    66    1
   225    69    66    1
   226   244   241   ar
   227   241   239   ar
   228   181   182    2
   229    53    54    2
   230   227   224    1
   231   240   239   ar
   232    66    67    1
   233   239   238    1
   234   224   225    1
   235   224   223    1
   236    67    68    2
   237   225   226    2
   238   238   235    1
   239   234   235    1
   240   235   236    1
   241   236   237    2
