@<TRIPOS>MOLECULE
tmp/2jg1B00.pdb
 164 151 0 0 0
SMALL
GASTEIGER

@<TRIPOS>ATOM
      1  N         42.6810   46.5830   82.4890 N.3    45  LYS45      -0.1245
      2  CA        43.9410   45.9750   82.1090 C.3    45  LYS45       0.1561
      3  C         44.6470   45.3960   83.3350 C.2    45  LYS45       0.2260
      4  O         45.2120   44.3100   83.2670 O.2    45  LYS45      -0.2867
      5  CB        44.8030   46.9680   81.3240 C.3    45  LYS45       0.0271
      6  CG        44.1670   47.3480   79.9820 C.3    45  LYS45       0.0035
      7  CD        44.8550   48.5240   79.3120 C.3    45  LYS45       0.0206
      8  CE        46.2420   48.1470   78.8180 C.3    45  LYS45       0.1093
      9  NZ        46.2130   47.0120   77.8420 N.3    45  LYS45      -0.1314
     10  N         52.6210   49.7080   82.6170 N.3   168  ASP168     -0.1239
     11  CA        52.0870   49.4990   81.2820 C.3   168  ASP168      0.1674
     12  C         51.0320   50.5610   80.9910 C.2   168  ASP168      0.2266
     13  O         49.8450   50.3710   81.2670 O.2   168  ASP168     -0.2867
     14  CB        51.5030   48.0880   81.1510 C.3   168  ASP168      0.1410
     15  CG        51.0380   47.7600   79.7340 C.2   168  ASP168      0.3668
     16  OD1       51.2010   48.5970   78.8150 O.co2 168  ASP168     -0.2456
     17  OD2       50.4990   46.6450   79.5500 O.co2 168  ASP168     -0.2456
     18  N         56.5850   48.4960   79.4580 N.3   188  LYS188     -0.1245
     19  CA        56.2710   47.5830   78.3590 C.3   188  LYS188      0.1561
     20  C         55.4410   48.2410   77.2400 C.2   188  LYS188      0.2260
     21  O         54.2570   47.9420   77.0800 O.2   188  LYS188     -0.2867
     22  CB        55.5790   46.3100   78.8680 C.3   188  LYS188      0.0271
     23  CG        55.4560   45.2390   77.7840 C.3   188  LYS188      0.0035
     24  CD        54.0980   44.5890   77.8310 C.3   188  LYS188      0.0206
     25  CE        53.4910   44.4910   76.4600 C.3   188  LYS188      0.1093
     26  NZ        53.1040   45.8020   75.8840 N.3   188  LYS188     -0.1314
     27  N         54.2980   48.5650   73.3940 N.3   190  ASN190     -0.1240
     28  CA        54.3860   47.8420   72.1340 C.3   190  ASN190      0.1653
     29  C         55.0870   48.7740   71.1490 C.2   190  ASN190      0.2266
     30  O         55.3170   49.9450   71.4720 O.2   190  ASN190     -0.2867
     31  CB        53.0230   47.2970   71.6510 C.3   190  ASN190      0.1155
     32  CG        52.0370   48.3820   71.2720 C.2   190  ASN190      0.2627
     33  OD1       52.4150   49.4810   70.8690 O.2   190  ASN190     -0.2716
     34  ND2       50.7500   48.0620   71.3730 N.am  190  ASN190     -0.0877
     35  N         53.3390   52.1090   70.3600 N.3   193  GLU193     -0.1245
     36  CA        53.4300   52.9680   71.5440 C.3   193  GLU193      0.1567
     37  C         54.7960   53.6380   71.7010 C.2   193  GLU193      0.2260
     38  O         54.8750   54.8140   72.0730 O.2   193  GLU193     -0.2867
     39  CB        53.0550   52.1780   72.8160 C.3   193  GLU193      0.0388
     40  CG        51.5530   51.8850   72.9320 C.3   193  GLU193      0.1160
     41  CD        51.1830   50.8480   73.9910 C.2   193  GLU193      0.3649
     42  OE1       52.0550   50.0880   74.4610 O.co2 193  GLU193     -0.2457
     43  OE2       49.9860   50.7760   74.3440 O.co2 193  GLU193     -0.2457
     44  N         57.2160   45.0910   73.0800 N.3   227  SER227     -0.1217
     45  CA        56.5310   43.9300   72.5380 C.3   227  SER227      0.1889
     46  C         56.1590   44.1760   71.0820 C.2   227  SER227      0.2288
     47  O         55.8520   45.3060   70.6950 O.2   227  SER227     -0.2866
     48  CB        55.2980   43.5850   73.3650 C.3   227  SER227      0.2089
     49  OG        54.3170   44.5930   73.2450 O.3   227  SER227     -0.2183
     50  N         53.9830   42.0340   68.9410 N.3   229  GLY229     -0.1210
     51  CA        52.9400   41.1330   68.4530 C.3   229  GLY229      0.1956
     52  C         53.5450   39.8050   68.0170 C.2   229  GLY229      0.2611
     53  O         54.2370   39.1440   68.7960 O.2   229  GLY229     -0.2717
     54  N         53.3060   39.4380   66.7590 N.am  230  ALA230     -0.1979
     55  CA        53.8310   38.2020   66.1640 C.3   230  ALA230      0.1597
     56  C         55.3570   38.1050   66.1610 C.2   230  ALA230      0.2287
     57  O         55.9100   37.0140   66.3080 O.2   230  ALA230     -0.2864
     58  CB        53.2930   38.0340   64.7450 C.3   230  ALA230      0.0319
     59  N         57.5460   38.9250   68.2960 N.3   232  GLY232     -0.1210
     60  CA        58.1730   38.6380   69.5890 C.3   232  GLY232      0.1956
     61  C         58.3770   39.8790   70.4350 C.2   232  GLY232      0.2611
     62  O         57.4070   40.5640   70.7850 O.2   232  GLY232     -0.2717
     63  N         59.6390   40.1630   70.7640 N.am  233  ALA233     -0.1979
     64  CA        59.9940   41.3120   71.6000 C.3   233  ALA233      0.1597
     65  C         61.4120   41.7900   71.3610 C.2   233  ALA233      0.2287
     66  O         62.2920   41.0130   70.9800 O.2   233  ALA233     -0.2864
     67  CB        59.8050   40.9820   73.0860 C.3   233  ALA233      0.0319
     68  N         60.0950   34.2960   68.4270 N.3   246  ILE246     -0.1231
     69  CA        59.0280   33.3460   68.7700 C.3   246  ILE246      0.1678
     70  C         58.4700   32.6200   67.5250 C.2   246  ILE246      0.2434
     71  O         58.5560   33.1520   66.4140 O.2   246  ILE246     -0.2733
     72  CB        57.8780   34.0440   69.5760 C.3   246  ILE246      0.0265
     73  CG1       57.2160   35.1600   68.7510 C.3   246  ILE246      0.0019
     74  CG2       58.3990   34.5670   70.9240 C.3   246  ILE246      0.0020
     75  CD1       55.8570   35.6160   69.2730 C.3   246  ILE246      0.0001
     76  N         57.9210   31.3970   67.7000 N.am  247  PRO247     -0.2718
     77  CA        57.3110   30.6740   66.5730 C.3   247  PRO247      0.1535
     78  C         55.9180   31.1860   66.2000 C.2   247  PRO247      0.2599
     79  O         55.2480   31.8200   67.0260 O.2   247  PRO247     -0.2715
     80  CB        57.2070   29.2430   67.1010 C.3   247  PRO247      0.0310
     81  CG        57.0330   29.4120   68.5680 C.3   247  PRO247      0.0237
     82  CD        57.8780   30.6010   68.9430 C.3   247  PRO247      0.0939
     83  N         55.4890   30.8980   64.9710 N.am  248  THR248     -0.1937
     84  CA        54.1540   31.2730   64.4980 C.3   248  THR248      0.2028
     85  C         53.1040   30.2970   65.0450 C.2   248  THR248      0.2642
     86  O         53.3450   29.0900   65.0920 O.2   248  THR248     -0.2714
     87  CB        54.1020   31.3280   62.9450 C.3   248  THR248      0.1808
     88  OG1       55.1850   32.1310   62.4540 O.3   248  THR248     -0.2208
     89  CG2       52.7820   31.9210   62.4540 C.3   248  THR248      0.0379
     90  N         51.9510   30.8260   65.4620 N.am  249  ILE249     -0.1977
     91  CA        50.8880   30.0180   66.0770 C.3   249  ILE249      0.1596
     92  C         49.4820   30.3810   65.5770 C.2   249  ILE249      0.2287
     93  O         49.2950   31.3930   64.8970 O.2   249  ILE249     -0.2864
     94  CB        50.9000   30.1230   67.6350 C.3   249  ILE249      0.0276
     95  CG1       50.7240   31.5830   68.0880 C.3   249  ILE249      0.0022
     96  CG2       52.1620   29.4790   68.2180 C.3   249  ILE249      0.0022
     97  CD1       50.2700   31.7480   69.5280 C.3   249  ILE249      0.0001
     98  N         46.2060   32.0580   65.9100 N.3   251  VAL251     -0.1245
     99  CA        45.8460   33.2810   66.6320 C.3   251  VAL251      0.1561
    100  C         44.3540   33.6000   66.5420 C.2   251  VAL251      0.2260
    101  O         43.8120   33.7760   65.4460 O.2   251  VAL251     -0.2867
    102  CB        46.6670   34.5000   66.1160 C.3   251  VAL251      0.0252
    103  CG1       46.2510   35.7870   66.8260 C.3   251  VAL251      0.0019
    104  CG2       48.1600   34.2570   66.2920 C.3   251  VAL251      0.0019
    105  N         44.5480   38.6630   69.8700 N.3   254  PRO254     -0.2102
    106  CA        45.7700   38.9770   70.6100 C.3   254  PRO254      0.1504
    107  C         45.5730   40.1000   71.6460 C.2   254  PRO254      0.2576
    108  O         46.5450   40.5410   72.2670 O.2   254  PRO254     -0.2718
    109  CB        46.7500   39.4170   69.5060 C.3   254  PRO254      0.0282
    110  CG        45.9100   39.6240   68.2470 C.3   254  PRO254      0.0208
    111  CD        44.4670   39.4220   68.6100 C.3   254  PRO254      0.0893
    112  N         44.3240   40.5530   71.8120 N.am  255  VAL255     -0.1966
    113  CA        43.9570   41.5490   72.8290 C.3   255  VAL255      0.1727
    114  C         44.1580   40.9780   74.2340 C.2   255  VAL255      0.2617
    115  O         43.6390   39.9070   74.5650 O.2   255  VAL255     -0.2715
    116  CB        42.4940   42.0580   72.6410 C.3   255  VAL255      0.0290
    117  CG1       42.0050   42.8250   73.8690 C.3   255  VAL255      0.0023
    118  CG2       42.3930   42.9370   71.3950 C.3   255  VAL255      0.0023
    119  N         44.9290   41.7010   75.0450 N.am  256  GLY256     -0.1940
    120  CA        45.2700   41.2520   76.3920 C.3   256  GLY256      0.2014
    121  C         46.5750   40.4730   76.4650 C.2   256  GLY256      0.2640
    122  O         46.9330   39.9700   77.5290 O.2   256  GLY256     -0.2714
    123  N         47.2760   40.3640   75.3360 N.am  257  SER257     -0.1935
    124  CA        48.5720   39.6800   75.2890 C.3   257  SER257      0.2055
    125  C         49.6630   40.5190   75.9380 C.2   257  SER257      0.2644
    126  O         50.6020   39.9780   76.5230 O.2   257  SER257     -0.2714
    127  CB        48.9600   39.3260   73.8530 C.3   257  SER257      0.2130
    128  OG        48.1750   38.2400   73.3820 O.3   257  SER257     -0.2179
    129  N         49.5360   41.8380   75.8180 N.am  258  GLY258     -0.1939
    130  CA        50.3930   42.7660   76.5460 C.3   258  GLY258      0.2014
    131  C         50.1740   42.6430   78.0490 C.2   258  GLY258      0.2638
    132  O         51.1430   42.5800   78.8080 O.2   258  GLY258     -0.2714
    133  N         48.9080   42.5720   78.4680 N.am  259  ASP259     -0.1971
    134  CA        48.5500   42.3900   79.8780 C.3   259  ASP259      0.1709
    135  C         49.0830   41.0670   80.4380 C.2   259  ASP259      0.2293
    136  O         49.5150   41.0010   81.5940 O.2   259  ASP259     -0.2864
    137  CB        47.0260   42.4370   80.0750 C.3   259  ASP259      0.1436
    138  CG        46.4070   43.7530   79.6120 C.2   259  ASP259      0.3671
    139  OD1       47.1130   44.7810   79.5740 O.co2 259  ASP259     -0.2456
    140  OD2       45.2020   43.7560   79.2930 O.co2 259  ASP259     -0.2456
    141  N         51.6960   39.4810   79.1610 N.3   261  THR261     -0.1218
    142  CA        53.1400   39.6780   79.1700 C.3   261  THR261      0.1862
    143  C         53.5480   40.3880   80.4600 C.2   261  THR261      0.2287
    144  O         54.5170   40.0030   81.1180 O.2   261  THR261     -0.2866
    145  CB        53.5860   40.4760   77.9110 C.3   261  THR261      0.1770
    146  OG1       53.3810   39.6670   76.7410 O.3   261  THR261     -0.2211
    147  CG2       55.0500   40.9130   77.9940 C.3   261  THR261      0.0375
    148  N         56.8540   36.4070   77.1540 N.3   283  ASN283     -0.1240
    149  CA        56.3650   36.0910   75.8080 C.3   283  ASN283      0.1653
    150  C         55.4460   34.8840   75.7120 C.2   283  ASN283      0.2266
    151  O         54.4830   34.9150   74.9500 O.2   283  ASN283     -0.2867
    152  CB        57.5110   35.9960   74.8020 C.3   283  ASN283      0.1155
    153  CG        57.9450   37.3490   74.2950 C.2   283  ASN283      0.2627
    154  OD1       57.4700   37.8180   73.2580 O.2   283  ASN283     -0.2716
    155  ND2       58.8430   37.9950   75.0250 N.am  283  ASN283     -0.0877
    156  N         51.9770   35.9500   76.7490 N.3   286  GLY286     -0.1225
    157  CA        51.4090   36.7480   75.6600 C.3   286  GLY286      0.1811
    158  C         50.8990   35.8730   74.5240 C.2   286  GLY286      0.2280
    159  O         49.7960   36.0800   74.0130 O.2   286  GLY286     -0.2866
    160  N         46.9590   34.9910   73.0560 N.3   289  ALA289     -0.1245
    161  CA        46.6330   35.3130   71.6650 C.3   289  ALA289      0.1562
    162  C         45.8950   34.1770   70.9450 C.2   289  ALA289      0.2260
    163  O         45.2580   34.3930   69.9070 O.2   289  ALA289     -0.2867
    164  CB        47.9020   35.7070   70.9020 C.3   289  ALA289      0.0290
@<TRIPOS>BOND
     1    89    87    1
     2    88    87    1
     3    87    84    1
     4    84    83    1
     5    84    85    1
     6    58    55    1
     7    93    92    2
     8    83    78   am
     9    85    86    2
    10    85    90   am
    11   101   100    2
    12    90    91    1
    13    92    91    1
    14    98    99    1
    15    91    94    1
    16   102   104    1
    17   102    99    1
    18   102   103    1
    19    56    55    1
    20    56    57    2
    21    55    54    1
    22    78    77    1
    23    78    79    2
    24    71    70    2
    25   100    99    1
    26    77    80    1
    27    77    76    1
    28    54    52   am
    29    80    81    1
    30    70    76   am
    31    70    69    1
    32    94    95    1
    33    94    96    1
    34    76    82    1
    35    52    51    1
    36    52    53    2
    37    95    97    1
    38   110   111    1
    39   110   109    1
    40    59    60    1
    41    68    69    1
    42    51    50    1
    43    81    82    1
    44   111   105    1
    45    73    75    1
    46    73    72    1
    47    69    72    1
    48   109   106    1
    49    72    74    1
    50    60    61    1
    51   105   106    1
    52   163   162    2
    53    35    36    1
    54    61    63   am
    55    61    62    2
    56   106   107    1
    57    47    46    2
    58    63    64    1
    59    33    32    2
    60   164   161    1
    61   162   161    1
    62    66    65    2
    63    46    45    1
    64    29    30    2
    65    29    28    1
    66    32    34   am
    67    32    31    1
    68    65    64    1
    69   118   116    1
    70    36    37    1
    71    36    39    1
    72    64    67    1
    73   107   112   am
    74   107   108    2
    75    31    28    1
    76   161   160    1
    77    37    38    2
    78   112   113    1
    79    28    27    1
    80    45    44    1
    81    45    48    1
    82   116   113    1
    83   116   117    1
    84    39    40    1
    85   113   114    1
    86    40    41    1
    87    49    48    1
    88   154   153    2
    89   128   127    1
    90   127   124    1
    91    41    43   ar
    92    41    42   ar
    93   159   158    2
    94   114   115    2
    95   114   119   am
    96   153   152    1
    97   153   155   am
    98   158   157    1
    99   152   149    1
   100   151   150    2
   101   119   120    1
   102   124   123    1
   103   124   125    1
   104   123   121   am
   105   157   156    1
   106   150   149    1
   107   149   148    1
   108   129   125   am
   109   129   130    1
   110    26    25    1
   111   125   126    2
   112   120   121    1
   113    25    24    1
   114   121   122    2
   115   130   131    1
   116   146   145    1
   117    21    20    2
   118    20    19    1
   119    23    24    1
   120    23    22    1
   121     9     8    1
   122   145   147    1
   123   145   142    1
   124   131   133   am
   125   131   132    2
   126    19    22    1
   127    19    18    1
   128   133   134    1
   129    16    15   ar
   130     8     7    1
   131   141   142    1
   132   142   143    1
   133   140   138   ar
   134     7     6    1
   135    17    15   ar
   136   139   138   ar
   137   138   137    1
   138    15    14    1
   139   134   137    1
   140   134   135    1
   141     6     5    1
   142   135   136    2
   143   143   144    2
   144    12    13    2
   145    12    11    1
   146    14    11    1
   147    11    10    1
   148     5     2    1
   149     2     1    1
   150     2     3    1
   151     4     3    2
