@<TRIPOS>MOLECULE
tmp/2jg1C00.pdb
 109 97 0 0 0
SMALL
GASTEIGER

@<TRIPOS>ATOM
      1  N         18.6430   50.3690   82.6210 N.3    16  ASP16      -0.1239
      2  CA        18.6880   50.7640   81.2190 C.3    16  ASP16       0.1674
      3  C         19.8170   51.7610   81.0330 C.2    16  ASP16       0.2266
      4  O         19.9980   52.6450   81.8490 O.2    16  ASP16      -0.2867
      5  CB        17.3580   51.4060   80.8000 C.3    16  ASP16       0.1410
      6  CG        16.2160   50.3950   80.6900 C.2    16  ASP16       0.3668
      7  OD1       16.4710   49.1870   80.4580 O.co2  16  ASP16      -0.2456
      8  OD2       15.0520   50.8170   80.8260 O.co2  16  ASP16      -0.2456
      9  N         13.2710   48.9360   82.5080 N.3    41  GLY41      -0.1210
     10  CA        12.3220   47.8980   82.1460 C.3    41  GLY41       0.1956
     11  C         11.0400   48.6980   81.9780 C.2    41  GLY41       0.2611
     12  O         10.8940   49.7730   82.5590 O.2    41  GLY41      -0.2717
     13  N         10.1040   48.1890   81.1970 N.am   42  LYS42      -0.1979
     14  CA         9.0010   49.0320   80.7520 C.3    42  LYS42       0.1596
     15  C          8.1300   49.5620   81.9080 C.2    42  LYS42       0.2287
     16  O          7.7850   50.7410   81.9350 O.2    42  LYS42      -0.2864
     17  CB         8.1650   48.3090   79.6920 C.3    42  LYS42       0.0298
     18  CG         8.9290   47.9680   78.4050 C.3    42  LYS42       0.0038
     19  CD         7.9650   47.6070   77.2830 C.3    42  LYS42       0.0206
     20  CE         8.6890   47.2530   75.9910 C.3    42  LYS42       0.1093
     21  NZ         9.6310   48.3240   75.4850 N.3    42  LYS42      -0.1314
     22  N          9.6150   52.5980   83.8660 N.3    45  ASN45      -0.1240
     23  CA         9.4570   53.8550   83.1230 C.3    45  ASN45       0.1653
     24  C          8.0430   54.3800   83.3380 C.2    45  ASN45       0.2266
     25  O          7.8510   55.5680   83.5540 O.2    45  ASN45      -0.2867
     26  CB         9.7380   53.6810   81.6250 C.3    45  ASN45       0.1155
     27  CG        11.2020   53.3830   81.3240 C.2    45  ASN45       0.2627
     28  OD1       12.1080   53.8320   82.0310 O.2    45  ASN45      -0.2716
     29  ND2       11.4360   52.6270   80.2650 N.am   45  ASN45      -0.0877
     30  N         18.5620   42.3920   85.1180 N.3    92  ARG92      -0.1245
     31  CA        19.2450   42.6230   83.8440 C.3    92  ARG92       0.1563
     32  C         19.6060   44.0740   83.5580 C.2    92  ARG92       0.2260
     33  O         19.1670   45.0060   84.2510 O.2    92  ARG92      -0.2867
     34  CB        18.3820   42.0730   82.6830 C.3    92  ARG92       0.0307
     35  CG        17.1650   42.9500   82.3870 C.3    92  ARG92       0.0489
     36  CD        16.2470   42.3710   81.3120 C.3    92  ARG92       0.2205
     37  NE        14.9970   43.1250   81.2790 N.pl3  92  ARG92      -0.0865
     38  CZ        14.2290   43.2680   80.2020 C.cat  92  ARG92       0.5346
     39  NH1       14.5930   42.7150   79.0480 N.pl3  92  ARG92       0.1354
     40  NH2       13.1000   43.9680   80.2780 N.pl3  92  ARG92       0.1354
     41  N         19.5470   46.6140   79.9680 N.3    94  CYS94      -0.1235
     42  CA        19.2420   46.7710   78.5420 C.3    94  CYS94       0.1677
     43  C         19.9890   48.0070   78.0930 C.2    94  CYS94       0.2270
     44  O         20.2780   48.8950   78.9100 O.2    94  CYS94      -0.2867
     45  CB        17.7450   46.9640   78.2890 C.3    94  CYS94       0.0956
     46  SG        16.7560   45.4790   78.6010 S.3    94  CYS94      -0.0801
     47  N         18.5560   49.0690   70.0010 N.3   105  GLU105     -0.1245
     48  CA        18.4290   48.5460   71.3570 C.3   105  GLU105      0.1567
     49  C         18.8630   47.0980   71.4840 C.2   105  GLU105      0.2260
     50  O         18.6190   46.2870   70.5740 O.2   105  GLU105     -0.2867
     51  CB        17.0030   48.6970   71.8560 C.3   105  GLU105      0.0388
     52  CG        16.5430   50.1480   71.9640 C.3   105  GLU105      0.1160
     53  CD        15.1200   50.2470   72.4520 C.2   105  GLU105      0.3649
     54  OE1       14.8560   49.8340   73.6080 O.co2 105  GLU105     -0.2457
     55  OE2       14.2670   50.7360   71.6780 O.co2 105  GLU105     -0.2457
     56  N         18.4060   44.0260   74.2420 N.3   107  LEU107     -0.1245
     57  CA        17.5950   43.6350   75.3890 C.3   107  LEU107      0.1561
     58  C         18.0020   42.2680   75.9200 C.2   107  LEU107      0.2260
     59  O         17.9670   41.2760   75.1940 O.2   107  LEU107     -0.2867
     60  CB        16.1070   43.6480   75.0160 C.3   107  LEU107      0.0270
     61  CG        15.5650   44.8840   74.2800 C.3   107  LEU107      0.0019
     62  CD1       14.0570   44.7440   74.0700 C.3   107  LEU107      0.0001
     63  CD2       15.8790   46.2230   74.9910 C.3   107  LEU107      0.0001
     64  N          6.1320   45.0340   79.7110 N.3   137  GLY137     -0.1210
     65  CA         7.4210   44.4570   79.3810 C.3   137  GLY137      0.1956
     66  C          7.4370   42.9500   79.2910 C.2   137  GLY137      0.2612
     67  O          6.4160   42.2720   79.4960 O.2   137  GLY137     -0.2717
     68  N          8.6190   42.4250   78.9930 N.am  138  SER138     -0.1952
     69  CA         8.8040   40.9990   78.8310 C.3   138  SER138      0.1924
     70  C          8.7400   40.2680   80.1730 C.2   138  SER138      0.2314
     71  O          8.7980   40.8850   81.2550 O.2   138  SER138     -0.2863
     72  CB        10.1340   40.7090   78.1150 C.3   138  SER138      0.2116
     73  OG        11.2500   41.0360   78.9290 O.3   138  SER138     -0.2180
     74  N          4.7590   42.1400   73.9910 N.3   167  SER167     -0.1217
     75  CA         4.9080   41.8850   72.5620 C.3   167  SER167      0.1889
     76  C          5.2150   40.4170   72.2590 C.2   167  SER167      0.2288
     77  O          5.4980   39.6240   73.1690 O.2   167  SER167     -0.2866
     78  CB         5.9910   42.8060   71.9680 C.3   167  SER167      0.2089
     79  OG         7.2750   42.5150   72.5070 O.3   167  SER167     -0.2183
     80  N         13.2300   56.6300   73.5250 N.3   252  VAL252     -0.1231
     81  CA        13.1490   55.3630   74.2660 C.3   252  VAL252      0.1692
     82  C         12.2910   55.6180   75.5080 C.2   252  VAL252      0.2592
     83  O         12.4560   56.6360   76.1770 O.2   252  VAL252     -0.2718
     84  CB        14.5490   54.7980   74.6320 C.3   252  VAL252      0.0266
     85  CG1       14.4370   53.5030   75.4360 C.3   252  VAL252      0.0020
     86  CG2       15.3580   54.5450   73.3780 C.3   252  VAL252      0.0020
     87  N         11.3660   54.7070   75.7910 N.am  253  GLY253     -0.1957
     88  CA        10.4190   54.8720   76.8940 C.3   253  GLY253      0.1869
     89  C          9.2190   55.7670   76.6240 C.2   253  GLY253      0.2309
     90  O          8.4150   56.0050   77.5240 O.2   253  GLY253     -0.2863
     91  N          6.6740   55.0400   74.7030 N.3   255  GLY255     -0.1210
     92  CA         5.5410   54.1180   74.8250 C.3   255  GLY255      0.1956
     93  C          5.1400   53.9030   76.2830 C.2   255  GLY255      0.2611
     94  O          3.9610   53.9330   76.6200 O.2   255  GLY255     -0.2717
     95  N          6.1300   53.6880   77.1460 N.am  256  ASP256     -0.1973
     96  CA         5.9030   53.6030   78.5960 C.3   256  ASP256      0.1709
     97  C          5.2980   54.8900   79.1890 C.2   256  ASP256      0.2293
     98  O          4.4040   54.8340   80.0400 O.2   256  ASP256     -0.2864
     99  CB         7.2150   53.2490   79.2960 C.3   256  ASP256      0.1436
    100  CG         7.8640   51.9900   78.7140 C.2   256  ASP256      0.3671
    101  OD1        7.1250   51.0840   78.2780 O.co2 256  ASP256     -0.2456
    102  OD2        9.1060   51.9180   78.6800 O.co2 256  ASP256     -0.2456
    103  N         15.5190   58.5360   79.7300 N.3   291  THR291     -0.1218
    104  CA        14.4990   57.5390   79.4030 C.3   291  THR291      0.1862
    105  C         13.4500   57.5160   80.5150 C.2   291  THR291      0.2287
    106  O         13.7980   57.4000   81.7030 O.2   291  THR291     -0.2866
    107  CB        15.1440   56.1500   79.1670 C.3   291  THR291      0.1770
    108  OG1       15.9730   56.2210   78.0050 O.3   291  THR291     -0.2211
    109  CG2       14.1000   55.0550   78.9690 C.3   291  THR291      0.0375
@<TRIPOS>BOND
     1    47    48    1
     2    50    49    2
     3    48    49    1
     4    48    51    1
     5    55    53   ar
     6    51    52    1
     7    52    53    1
     8    78    79    1
     9    78    75    1
    10    76    75    1
    11    76    77    2
    12    53    54   ar
    13    75    74    1
    14    86    84    1
    15    80    81    1
    16    62    61    1
    17    56    57    1
    18    81    84    1
    19    81    82    1
    20    61    63    1
    21    61    60    1
    22    84    85    1
    23    91    92    1
    24    92    93    1
    25    60    57    1
    26    59    58    2
    27    57    58    1
    28    21    20    1
    29    82    87   am
    30    82    83    2
    31    87    88    1
    32    20    19    1
    33    93    94    2
    34    93    95   am
    35    89    88    1
    36    89    90    2
    37    95    96    1
    38    19    18    1
    39   108   107    1
    40    43    42    1
    41    43    44    2
    42    72    69    1
    43    72    73    1
    44   101   100   ar
    45    45    42    1
    46    45    46    1
    47    18    17    1
    48    42    41    1
    49    96    97    1
    50    96    99    1
    51   102   100   ar
    52   100    99    1
    53    69    68    1
    54    69    70    1
    55   109   107    1
    56    68    66   am
    57    39    38    1
    58   107   104    1
    59    97    98    2
    60    66    65    1
    61    66    67    2
    62    65    64    1
    63   104   103    1
    64   104   105    1
    65    17    14    1
    66    70    71    2
    67    38    40    1
    68    38    37    2
    69    29    27   am
    70     7     6   ar
    71   105   106    2
    72     6     5    1
    73     6     8   ar
    74    14    13    1
    75    14    15    1
    76     5     2    1
    77     3     2    1
    78     3     4    2
    79    13    11   am
    80     2     1    1
    81    37    36    1
    82    36    35    1
    83    27    26    1
    84    27    28    2
    85    26    23    1
    86    15    16    2
    87    11    10    1
    88    11    12    2
    89    10     9    1
    90    35    34    1
    91    34    31    1
    92    23    24    1
    93    23    22    1
    94    24    25    2
    95    32    31    1
    96    32    33    2
    97    31    30    1
