@<TRIPOS>MOLECULE
tmp/2jg3A00.pdb
 147 141 0 0 0
SMALL
GASTEIGER

@<TRIPOS>ATOM
      1  N        -14.2930  -12.3260   21.2470 N.3     1  THR1       -0.1218
      2  CA       -12.9150  -12.1720   21.8140 C.3     1  THR1        0.1862
      3  C        -12.5910  -13.4190   22.6450 C.2     1  THR1        0.2287
      4  O        -13.4420  -13.8660   23.4060 O.2     1  THR1       -0.2866
      5  CB       -12.8370  -10.9080   22.7160 C.3     1  THR1        0.1770
      6  OG1      -13.3950   -9.7960   22.0120 O.3     1  THR1       -0.2211
      7  CG2      -11.4030  -10.5890   23.1140 C.3     1  THR1        0.0375
      8  N        -19.9510   -1.7450   20.5610 N.3    25  ALA25      -0.1245
      9  CA       -19.9780   -2.8760   19.6370 C.3    25  ALA25       0.1562
     10  C        -20.1720   -4.1880   20.4140 C.2    25  ALA25       0.2260
     11  O        -19.4250   -5.1530   20.2240 O.2    25  ALA25      -0.2867
     12  CB       -18.6810   -2.9070   18.7680 C.3    25  ALA25       0.0290
     13  N        -22.6160   -6.6240   20.9300 N.3    27  ALA27      -0.1245
     14  CA       -23.3490   -7.8340   20.5390 C.3    27  ALA27       0.1562
     15  C        -24.0640   -8.3990   21.7660 C.2    27  ALA27       0.2260
     16  O        -24.9190   -7.7130   22.3280 O.2    27  ALA27      -0.2867
     17  CB       -22.4060   -8.8660   19.8670 C.3    27  ALA27       0.0290
     18  N        -23.6470   -0.7560   23.6190 N.3    48  VAL48      -0.1231
     19  CA       -24.0760   -0.1210   22.3590 C.3    48  VAL48       0.1692
     20  C        -23.7540   -0.9970   21.1290 C.2    48  VAL48       0.2592
     21  O        -22.6290   -1.4590   20.9620 O.2    48  VAL48      -0.2718
     22  CB       -23.5140    1.3260   22.1920 C.3    48  VAL48       0.0266
     23  CG1      -23.8680    1.8840   20.8080 C.3    48  VAL48       0.0020
     24  CG2      -24.0810    2.2610   23.2810 C.3    48  VAL48       0.0020
     25  N        -24.7510   -1.2010   20.2680 N.am   49  GLU49      -0.1966
     26  CA       -24.6370   -2.1440   19.1580 C.3    49  GLU49       0.1733
     27  C        -25.4320   -1.6530   17.9450 C.2    49  GLU49       0.2616
     28  O        -26.5750   -1.2250   18.0830 O.2    49  GLU49      -0.2715
     29  CB       -25.1080   -3.5310   19.6090 C.3    49  GLU49       0.0429
     30  CG       -25.2840   -4.6140   18.5720 C.3    49  GLU49       0.1163
     31  CD       -24.0300   -4.9160   17.7870 C.2    49  GLU49       0.3649
     32  OE1      -23.0180   -5.3510   18.3650 O.co2  49  GLU49      -0.2457
     33  OE2      -24.0640   -4.7020   16.5700 O.co2  49  GLU49      -0.2457
     34  N        -24.8210   -1.7260   16.7570 N.am   50  ILE50      -0.1963
     35  CA       -25.4800   -1.2350   15.5280 C.3    50  ILE50       0.1727
     36  C        -26.4650   -2.2290   14.8750 C.2    50  ILE50       0.2616
     37  O        -27.3950   -1.8320   14.1580 O.2    50  ILE50      -0.2715
     38  CB       -24.4070   -0.7790   14.4730 C.3    50  ILE50       0.0290
     39  CG1      -24.9800    0.2810   13.5120 C.3    50  ILE50       0.0022
     40  CG2      -23.7810   -1.9840   13.7760 C.3    50  ILE50       0.0023
     41  CD1      -23.9470    0.8940   12.5620 C.3    50  ILE50       0.0001
     42  N        -26.2260   -3.5170   15.0850 N.am   51  ASP51      -0.1971
     43  CA       -27.0000   -4.5700   14.4240 C.3    51  ASP51       0.1709
     44  C        -28.0850   -5.1230   15.3650 C.2    51  ASP51       0.2293
     45  O        -27.7660   -5.6800   16.4160 O.2    51  ASP51      -0.2864
     46  CB       -26.0500   -5.6700   13.9410 C.3    51  ASP51       0.1436
     47  CG       -26.7540   -6.7880   13.1780 C.2    51  ASP51       0.3671
     48  OD1      -27.9770   -6.7500   12.9930 O.co2  51  ASP51      -0.2456
     49  OD2      -26.0580   -7.7270   12.7550 O.co2  51  ASP51      -0.2456
     50  N        -27.7410   -8.6640   16.4400 N.3    54  ALA54      -0.1245
     51  CA       -26.6020   -8.9540   17.3180 C.3    54  ALA54       0.1562
     52  C        -26.8210   -8.5780   18.7890 C.2    54  ALA54       0.2260
     53  O        -26.2570   -9.2280   19.6880 O.2    54  ALA54      -0.2867
     54  CB       -25.3200   -8.2700   16.7690 C.3    54  ALA54       0.0290
     55  N        -27.4200    1.6760   17.9480 N.3    66  ALA66      -0.1231
     56  CA       -26.8080    2.9040   17.4420 C.3    66  ALA66       0.1694
     57  C        -25.4780    2.5870   16.7980 C.2    66  ALA66       0.2592
     58  O        -24.8260    1.6020   17.1580 O.2    66  ALA66      -0.2718
     59  CB       -26.6040    3.9440   18.5780 C.3    66  ALA66       0.0304
     60  N        -25.0880    3.4270   15.8400 N.am   67  ASP67      -0.1960
     61  CA       -23.7110    3.4830   15.3850 C.3    67  ASP67       0.1840
     62  C        -22.9490    4.1630   16.5360 C.2    67  ASP67       0.2622
     63  O        -23.1700    5.3520   16.8190 O.2    67  ASP67      -0.2715
     64  CB       -23.6250    4.3240   14.1090 C.3    67  ASP67       0.1450
     65  CG       -22.1990    4.4410   13.5610 C.2    67  ASP67       0.3671
     66  OD1      -21.2170    4.1720   14.2950 O.co2  67  ASP67      -0.2456
     67  OD2      -22.0660    4.8390   12.3890 O.co2  67  ASP67      -0.2456
     68  N        -22.0740    3.4120   17.2080 N.am   68  PHE68      -0.1960
     69  CA       -21.2980    3.9540   18.3180 C.3    68  PHE68       0.1771
     70  C        -20.5350    5.2300   17.9500 C.2    68  PHE68       0.2619
     71  O        -20.4220    6.1380   18.7750 O.2    68  PHE68      -0.2715
     72  CB       -20.3250    2.8980   18.8630 C.3    68  PHE68       0.0574
     73  CG       -19.4100    3.4040   19.9390 C.ar   68  PHE68      -0.0200
     74  CD1      -19.8860    3.6750   21.2290 C.ar   68  PHE68      -0.0042
     75  CD2      -18.0570    3.5860   19.6800 C.ar   68  PHE68      -0.0042
     76  CE1      -19.0220    4.1280   22.2230 C.ar   68  PHE68      -0.0003
     77  CE2      -17.1880    4.0310   20.6830 C.ar   68  PHE68      -0.0003
     78  CZ       -17.6710    4.3120   21.9380 C.ar   68  PHE68      -0.0000
     79  N        -20.0340    5.2890   16.7220 N.am   69  LEU69      -0.1977
     80  CA       -19.2330    6.4250   16.2570 C.3    69  LEU69       0.1596
     81  C        -20.0050    7.7530   16.1160 C.2    69  LEU69       0.2287
     82  O        -19.3950    8.8070   16.0360 O.2    69  LEU69      -0.2864
     83  CB       -18.5460    6.0810   14.9420 C.3    69  LEU69       0.0297
     84  CG       -17.5520    4.9210   15.0360 C.3    69  LEU69       0.0022
     85  CD1      -16.9250    4.6520   13.6620 C.3    69  LEU69       0.0001
     86  CD2      -16.4880    5.2080   16.0390 C.3    69  LEU69       0.0001
     87  N        -13.9140   -4.7030   22.4530 N.3    83  ASN83      -0.1226
     88  CA       -13.2070   -5.0930   21.2590 C.3    83  ASN83       0.1770
     89  C        -13.8330   -4.3310   20.0900 C.2    83  ASN83       0.2439
     90  O        -14.8300   -4.7850   19.5150 O.2    83  ASN83      -0.2733
     91  CB       -13.3380   -6.6120   21.0870 C.3    83  ASN83       0.1168
     92  CG       -12.4130   -7.2000   20.0250 C.2    83  ASN83       0.2627
     93  OD1      -11.9890   -6.5190   19.0850 O.2    83  ASN83      -0.2716
     94  ND2      -12.1150   -8.4830   20.1590 N.am   83  ASN83      -0.0877
     95  N        -13.2740   -3.1510   19.7470 N.am   84  PRO84      -0.2718
     96  CA       -13.8330   -2.4310   18.5980 C.3    84  PRO84       0.1520
     97  C        -13.7270   -3.2330   17.3150 C.2    84  PRO84       0.2440
     98  O        -12.8720   -4.1130   17.2180 O.2    84  PRO84      -0.2731
     99  CB       -12.9330   -1.1940   18.4670 C.3    84  PRO84       0.0310
    100  CG       -11.7210   -1.4850   19.2280 C.3    84  PRO84       0.0237
    101  CD       -12.1330   -2.4390   20.3500 C.3    84  PRO84       0.0939
    102  N        -14.5490   -2.8850   16.3110 N.am   85  PRO85      -0.2727
    103  CA       -14.3630   -3.4000   14.9750 C.3    85  PRO85       0.1402
    104  C        -13.0440   -2.8630   14.3550 C.2    85  PRO85       0.2269
    105  O        -12.6390   -1.7420   14.6620 O.2    85  PRO85      -0.2865
    106  CB       -15.5900   -2.8600   14.2200 C.3    85  PRO85       0.0296
    107  CG       -15.9730   -1.6470   14.9120 C.3    85  PRO85       0.0237
    108  CD       -15.6930   -1.9530   16.3880 C.3    85  PRO85       0.0939
    109  N        -14.9690   -2.2330    4.9970 N.3    97  ILE97      -0.1245
    110  CA       -16.0740   -1.4960    5.6480 C.3    97  ILE97       0.1561
    111  C        -16.7630   -0.5710    4.6570 C.2    97  ILE97       0.2260
    112  O        -16.1410    0.3050    4.0850 O.2    97  ILE97      -0.2867
    113  CB       -15.6230   -0.6830    6.8930 C.3    97  ILE97       0.0252
    114  CG1      -14.7940   -1.5480    7.8610 C.3    97  ILE97       0.0019
    115  CG2      -16.8590   -0.0190    7.5880 C.3    97  ILE97       0.0019
    116  CD1      -15.5320   -2.7570    8.4510 C.3    97  ILE97       0.0001
    117  N        -18.0770   10.7780    9.9110 N.3   107  TYR107     -0.1241
    118  CA       -16.9330   10.2750   10.6940 C.3   107  TYR107      0.1605
    119  C        -15.7600   11.2480   10.6920 C.2   107  TYR107      0.2264
    120  O        -15.1990   11.5780   11.7390 O.2   107  TYR107     -0.2867
    121  CB       -16.4410    8.9330   10.1560 C.3   107  TYR107      0.0534
    122  CG       -17.3690    7.7610   10.3620 C.ar  107  TYR107     -0.0201
    123  CD1      -18.4980    7.8750   11.1780 C.ar  107  TYR107     -0.0009
    124  CD2      -17.1100    6.5270    9.7400 C.ar  107  TYR107     -0.0009
    125  CE1      -19.3470    6.8040   11.3850 C.ar  107  TYR107      0.0417
    126  CE2      -17.9640    5.4290    9.9430 C.ar  107  TYR107      0.0417
    127  CZ       -19.0820    5.5880   10.7760 C.ar  107  TYR107      0.1957
    128  OH       -19.9420    4.5360   11.0310 O.3   107  TYR107     -0.2866
    129  N        -11.6670    2.0480   11.3950 N.3   120  LEU120     -0.1245
    130  CA       -12.7020    2.0170   12.4330 C.3   120  LEU120      0.1561
    131  C        -12.1410    1.9620   13.8590 C.2   120  LEU120      0.2260
    132  O        -12.6700    2.5920   14.7470 O.2   120  LEU120     -0.2867
    133  CB       -13.6000    0.8060   12.2060 C.3   120  LEU120      0.0270
    134  CG       -15.0080    0.9890   11.6580 C.3   120  LEU120      0.0019
    135  CD1      -15.1750    2.1780   10.7500 C.3   120  LEU120      0.0001
    136  CD2      -15.5440   -0.3280   11.0560 C.3   120  LEU120      0.0001
    137  N        -12.9890    4.4060   16.9370 N.3   124  PHE124     -0.1241
    138  CA       -13.5320    3.8360   18.1690 C.3   124  PHE124      0.1605
    139  C        -12.7220    4.2880   19.3830 C.2   124  PHE124      0.2264
    140  O        -13.2920    4.6440   20.4130 O.2   124  PHE124     -0.2867
    141  CB       -13.6190    2.2990   18.1030 C.3   124  PHE124      0.0534
    142  CG       -14.9850    1.7750   17.6990 C.ar  124  PHE124     -0.0203
    143  CD1      -15.4660    1.9680   16.4080 C.ar  124  PHE124     -0.0042
    144  CD2      -15.8010    1.1070   18.6290 C.ar  124  PHE124     -0.0042
    145  CE1      -16.7160    1.5180   16.0340 C.ar  124  PHE124     -0.0003
    146  CE2      -17.0550    0.6300   18.2640 C.ar  124  PHE124     -0.0003
    147  CZ       -17.5240    0.8590   16.9450 C.ar  124  PHE124     -0.0000
@<TRIPOS>BOND
     1   112   111    2
     2   111   110    1
     3   109   110    1
     4   110   113    1
     5   113   115    1
     6   113   114    1
     7   114   116    1
     8   124   126   ar
     9   124   122   ar
    10   117   118    1
    11   126   127   ar
    12   121   122    1
    13   121   118    1
    14   122   123   ar
    15   119   118    1
    16   119   120    2
    17   135   134    1
    18   127   128    1
    19   127   125   ar
    20   136   134    1
    21   123   125   ar
    22   129   130    1
    23   134   133    1
    24   133   130    1
    25    67    65   ar
    26   130   131    1
    27    41    39    1
    28    49    47   ar
    29    48    47   ar
    30    47    46    1
    31    39    38    1
    32    65    64    1
    33    65    66   ar
    34    85    84    1
    35    40    38    1
    36   131   132    2
    37    46    43    1
    38    64    61    1
    39    37    36    2
    40   106   107    1
    41   106   103    1
    42   104   105    2
    43   104   103    1
    44    43    42    1
    45    43    44    1
    46    38    35    1
    47    36    42   am
    48    36    35    1
    49   107   108    1
    50    83    84    1
    51    83    80    1
    52   103   102    1
    53    84    86    1
    54    44    45    2
    55    61    60    1
    56    61    62    1
    57    35    34    1
    58    60    57   am
    59   145   143   ar
    60   145   147   ar
    61    82    81    2
    62    81    80    1
    63    80    79    1
    64   102   108    1
    65   102    97   am
    66   143   142   ar
    67    50    51    1
    68    62    63    2
    69    62    68   am
    70    33    31   ar
    71    79    70   am
    72    34    27   am
    73    54    51    1
    74    57    58    2
    75    57    56    1
    76   137   138    1
    77   147   146   ar
    78    68    69    1
    79    98    97    2
    80    97    96    1
    81    51    52    1
    82    56    55    1
    83    56    59    1
    84   142   141    1
    85   142   144   ar
    86    31    32   ar
    87    31    30    1
    88    27    28    2
    89    27    26    1
    90    70    69    1
    91    70    71    2
    92   141   138    1
    93   138   139    1
    94   146   144   ar
    95    69    72    1
    96    99    96    1
    97    99   100    1
    98    30    29    1
    99    96    95    1
   100    12     9    1
   101    52    53    2
   102    72    73    1
   103    93    92    2
   104    26    29    1
   105    26    25    1
   106   100   101    1
   107   139   140    2
   108    90    89    2
   109     9    10    1
   110     9     8    1
   111    75    73   ar
   112    75    77   ar
   113    95    89   am
   114    95   101    1
   115    17    14    1
   116    73    74   ar
   117    92    94   am
   118    92    91    1
   119    89    88    1
   120    11    10    2
   121    25    20   am
   122    14    13    1
   123    14    15    1
   124    77    78   ar
   125    23    22    1
   126    21    20    2
   127    91    88    1
   128    20    19    1
   129    74    76   ar
   130     1     2    1
   131    88    87    1
   132    15    16    2
   133     2     3    1
   134     2     5    1
   135    78    76   ar
   136     6     5    1
   137    22    19    1
   138    22    24    1
   139    19    18    1
   140     3     4    2
   141     5     7    1
