@<TRIPOS>MOLECULE
tmp/2jg3D00.pdb
 154 149 0 0 0
SMALL
GASTEIGER

@<TRIPOS>ATOM
      1  N         39.2310   14.0120   76.8260 N.3     1  THR1       -0.1218
      2  CA        37.9110   14.0140   77.5210 C.3     1  THR1        0.1862
      3  C         37.6410   15.4180   78.0780 C.2     1  THR1        0.2287
      4  O         38.4980   15.9960   78.7540 O.2     1  THR1       -0.2866
      5  CB        37.8510   12.9830   78.6880 C.3     1  THR1        0.1770
      6  OG1       38.4380   11.7430   78.2900 O.3     1  THR1       -0.2211
      7  CG2       36.4130   12.7220   79.1060 C.3     1  THR1        0.0375
      8  N         44.7510    3.4310   78.3810 N.3    25  ALA25      -0.1245
      9  CA        44.9000    4.4070   77.2690 C.3    25  ALA25       0.1562
     10  C         45.1290    5.8290   77.7780 C.2    25  ALA25       0.2260
     11  O         44.4150    6.7720   77.4230 O.2    25  ALA25      -0.2867
     12  CB        43.6960    4.3300   76.2910 C.3    25  ALA25       0.0290
     13  N         47.6420    8.2360   77.8480 N.3    27  ALA27      -0.1245
     14  CA        48.4240    9.3720   77.3040 C.3    27  ALA27       0.1562
     15  C         49.1470   10.1110   78.4570 C.2    27  ALA27       0.2260
     16  O         49.9800    9.5120   79.1180 O.2    27  ALA27      -0.2867
     17  CB        47.5350   10.3140   76.4720 C.3    27  ALA27       0.0290
     18  N         48.5310    2.9540   81.4440 N.3    48  VAL48      -0.1231
     19  CA        48.9380    2.0890   80.3570 C.3    48  VAL48       0.1692
     20  C         48.6310    2.7380   78.9920 C.2    48  VAL48       0.2592
     21  O         47.5000    3.1520   78.7280 O.2    48  VAL48      -0.2718
     22  CB        48.2640    0.6950   80.4310 C.3    48  VAL48       0.0266
     23  CG1       48.6740   -0.1360   79.2090 C.3    48  VAL48       0.0020
     24  CG2       48.6630   -0.0310   81.7210 C.3    48  VAL48       0.0020
     25  N         49.6500    2.8180   78.1430 N.am   49  GLU49      -0.1966
     26  CA        49.5610    3.5240   76.8460 C.3    49  GLU49       0.1733
     27  C         50.3890    2.8030   75.7670 C.2    49  GLU49       0.2616
     28  O         51.4750    2.2810   76.0450 O.2    49  GLU49      -0.2715
     29  CB        49.9990    4.9940   77.0420 C.3    49  GLU49       0.0429
     30  CG        50.2190    5.8510   75.7930 C.3    49  GLU49       0.1163
     31  CD        48.9650    6.0500   75.0020 C.2    49  GLU49       0.3649
     32  OE1       48.0010    6.6570   75.5290 O.co2  49  GLU49      -0.2457
     33  OE2       48.9460    5.5860   73.8480 O.co2  49  GLU49      -0.2457
     34  N         49.8520    2.7600   74.5430 N.am   50  ILE50      -0.1963
     35  CA        50.4490    2.0050   73.4320 C.3    50  ILE50       0.1727
     36  C         51.4120    2.8680   72.6120 C.2    50  ILE50       0.2616
     37  O         52.3600    2.3610   72.0170 O.2    50  ILE50      -0.2715
     38  CB        49.3400    1.3530   72.5300 C.3    50  ILE50       0.0290
     39  CG1       49.8820    0.1510   71.7450 C.3    50  ILE50       0.0022
     40  CG2       48.6350    2.3790   71.6330 C.3    50  ILE50       0.0023
     41  CD1       48.8050   -0.5640   70.9160 C.3    50  ILE50       0.0001
     42  N         51.1780    4.1740   72.6030 N.am   51  ASP51      -0.1971
     43  CA        51.9690    5.0920   71.7910 C.3    51  ASP51       0.1709
     44  C         53.0630    5.7720   72.6360 C.2    51  ASP51       0.2293
     45  O         52.7320    6.5730   73.5160 O.2    51  ASP51      -0.2864
     46  CB        51.0500    6.1450   71.1620 C.3    51  ASP51       0.1436
     47  CG        51.7730    7.0690   70.1940 C.2    51  ASP51       0.3671
     48  OD1       53.0160    7.0000   70.0750 O.co2  51  ASP51      -0.2456
     49  OD2       51.0820    7.8800   69.5380 O.co2  51  ASP51      -0.2456
     50  N         52.7450    9.4080   73.1340 N.3    54  ALA54      -0.1245
     51  CA        51.6070    9.8760   73.9290 C.3    54  ALA54       0.1562
     52  C         51.8220    9.7170   75.4410 C.2    54  ALA54       0.2260
     53  O         51.2720   10.4840   76.2290 O.2    54  ALA54      -0.2867
     54  CB        50.3290    9.1720   73.4930 C.3    54  ALA54       0.0290
     55  N         52.2830   -0.4880   76.6150 N.3    66  ALA66      -0.1231
     56  CA        51.7010   -1.7710   76.2380 C.3    66  ALA66       0.1694
     57  C         50.3800   -1.5580   75.5160 C.2    66  ALA66       0.2592
     58  O         49.7230   -0.5310   75.6950 O.2    66  ALA66      -0.2718
     59  CB        51.4940   -2.6400   77.4620 C.3    66  ALA66       0.0304
     60  N         50.0030   -2.5160   74.6760 N.am   67  ASP67      -0.1960
     61  CA        48.6290   -2.5960   74.2170 C.3    67  ASP67       0.1840
     62  C         47.8050   -3.0920   75.3810 C.2    67  ASP67       0.2622
     63  O         48.0110   -4.2270   75.8390 O.2    67  ASP67      -0.2715
     64  CB        48.5170   -3.5680   73.0330 C.3    67  ASP67       0.1450
     65  CG        47.0810   -3.7640   72.5490 C.2    67  ASP67       0.3671
     66  OD1       46.0960   -3.4190   73.2390 O.co2  67  ASP67      -0.2456
     67  OD2       46.9320   -4.3110   71.4520 O.co2  67  ASP67      -0.2456
     68  N         46.9020   -2.2420   75.8790 N.am   68  PHE68      -0.1960
     69  CA        46.0790   -2.5620   77.0530 C.3    68  PHE68       0.1771
     70  C         45.3600   -3.8850   76.9150 C.2    68  PHE68       0.2619
     71  O         45.2900   -4.6590   77.8650 O.2    68  PHE68      -0.2715
     72  CB        45.0400   -1.4700   77.3300 C.3    68  PHE68       0.0574
     73  CG        44.1030   -1.7910   78.5010 C.ar   68  PHE68      -0.0200
     74  CD1       44.5900   -1.8680   79.8030 C.ar   68  PHE68      -0.0042
     75  CD2       42.7410   -2.0090   78.2820 C.ar   68  PHE68      -0.0042
     76  CE1       43.7450   -2.1580   80.8570 C.ar   68  PHE68      -0.0003
     77  CE2       41.8660   -2.2870   79.3300 C.ar   68  PHE68      -0.0003
     78  CZ        42.3760   -2.3620   80.6390 C.ar   68  PHE68      -0.0000
     79  N         44.8100   -4.1320   75.7270 N.am   69  LEU69      -0.1977
     80  CA        44.0500   -5.3510   75.4780 C.3    69  LEU69       0.1596
     81  C         44.8470   -6.6680   75.6120 C.2    69  LEU69       0.2287
     82  O         44.2610   -7.7150   75.8800 O.2    69  LEU69      -0.2864
     83  CB        43.3160   -5.2520   74.1320 C.3    69  LEU69       0.0297
     84  CG        42.3480   -4.0570   74.0650 C.3    69  LEU69       0.0022
     85  CD1       41.8000   -3.9130   72.6500 C.3    69  LEU69       0.0001
     86  CD2       41.2040   -4.1640   75.1090 C.3    69  LEU69       0.0001
     87  N         38.7910    6.7920   79.5460 N.3    83  ASN83      -0.1226
     88  CA        38.1040    6.9680   78.2680 C.3    83  ASN83       0.1770
     89  C         38.7820    6.0020   77.3110 C.2    83  ASN83       0.2439
     90  O         39.8640    6.3120   76.8000 O.2    83  ASN83      -0.2733
     91  CB        38.3070    8.4260   77.8090 C.3    83  ASN83       0.1168
     92  CG        37.4450    8.8420   76.5960 C.2    83  ASN83       0.2627
     93  OD1       37.1350    8.0530   75.6960 O.2    83  ASN83      -0.2716
     94  ND2       37.0620   10.1070   76.5810 N.am   83  ASN83      -0.0877
     95  N         38.1680    4.8180   77.0580 N.am   84  PRO84      -0.2718
     96  CA        38.7540    3.9140   76.0520 C.3    84  PRO84       0.1520
     97  C         38.6710    4.5310   74.6600 C.2    84  PRO84       0.2440
     98  O         37.8610    5.4480   74.4440 O.2    84  PRO84      -0.2731
     99  CB        37.8350    2.6830   76.0850 C.3    84  PRO84       0.0310
    100  CG        36.9900    2.8440   77.3420 C.3    84  PRO84       0.0237
    101  CD        36.9190    4.2850   77.6330 C.3    84  PRO84       0.0939
    102  N         39.5070    4.0340   73.7210 N.am   85  PRO85      -0.2727
    103  CA        39.2920    4.3230   72.3130 C.3    85  PRO85       0.1402
    104  C         37.9790    3.7200   71.8340 C.2    85  PRO85       0.2269
    105  O         37.5390    2.6840   72.3450 O.2    85  PRO85      -0.2865
    106  CB        40.4790    3.6130   71.6240 C.3    85  PRO85       0.0296
    107  CG        40.8680    2.5490   72.5290 C.3    85  PRO85       0.0237
    108  CD        40.6700    3.1500   73.9140 C.3    85  PRO85       0.0939
    109  N         37.8510    2.6240   61.1750 N.3    96  PRO96      -0.2102
    110  CA        38.9340    3.4520   61.7550 C.3    96  PRO96       0.1504
    111  C         40.1470    2.7510   62.3690 C.2    96  PRO96       0.2575
    112  O         41.2060    3.3790   62.4830 O.2    96  PRO96      -0.2718
    113  CB        38.2160    4.2480   62.8490 C.3    96  PRO96       0.0282
    114  CG        37.1380    3.3600   63.2820 C.3    96  PRO96       0.0208
    115  CD        36.6410    2.6830   62.0120 C.3    96  PRO96       0.0893
    116  N         40.0050    1.4920   62.7820 N.am   97  ILE97      -0.1980
    117  CA        41.0500    0.8480   63.5640 C.3    97  ILE97       0.1595
    118  C         41.7100   -0.2290   62.7160 C.2    97  ILE97       0.2287
    119  O         41.0550   -1.1460   62.2620 O.2    97  ILE97      -0.2864
    120  CB        40.5250    0.2690   64.9200 C.3    97  ILE97       0.0276
    121  CG1       39.7210    1.3270   65.6980 C.3    97  ILE97       0.0022
    122  CG2       41.6950   -0.3040   65.7730 C.3    97  ILE97       0.0022
    123  CD1       40.5450    2.5220   66.1880 C.3    97  ILE97       0.0001
    124  N         42.7760  -10.6860   69.7910 N.3   107  TYR107     -0.1241
    125  CA        41.6590  -10.0440   70.5010 C.3   107  TYR107      0.1605
    126  C         40.4650  -10.9950   70.6390 C.2   107  TYR107      0.2264
    127  O         39.8840  -11.1300   71.7240 O.2   107  TYR107     -0.2867
    128  CB        41.2180   -8.7500   69.8110 C.3   107  TYR107      0.0534
    129  CG        42.2040   -7.5750   69.8640 C.ar  107  TYR107     -0.0201
    130  CD1       43.3120   -7.5720   70.7340 C.ar  107  TYR107     -0.0009
    131  CD2       42.0120   -6.4670   69.0540 C.ar  107  TYR107     -0.0009
    132  CE1       44.2050   -6.4920   70.7690 C.ar  107  TYR107      0.0417
    133  CE2       42.9020   -5.3780   69.0780 C.ar  107  TYR107      0.0417
    134  CZ        43.9850   -5.3990   69.9360 C.ar  107  TYR107      0.1957
    135  OH        44.8450   -4.3280   69.9350 O.3   107  TYR107     -0.2866
    136  N         36.6030   -1.6930   69.7180 N.3   120  LEU120     -0.1245
    137  CA        37.6110   -1.4910   70.7690 C.3   120  LEU120      0.1561
    138  C         37.0050   -1.1830   72.1370 C.2   120  LEU120      0.2260
    139  O         37.5160   -1.6410   73.1390 O.2   120  LEU120     -0.2867
    140  CB        38.5690   -0.3580   70.4150 C.3   120  LEU120      0.0270
    141  CG        39.6020   -0.6190   69.3180 C.3   120  LEU120      0.0019
    142  CD1       40.6070    0.5210   69.2600 C.3   120  LEU120      0.0001
    143  CD2       40.3380   -1.9340   69.5140 C.3   120  LEU120      0.0001
    144  N         37.8490   -3.1100   75.6710 N.3   124  PHE124     -0.1241
    145  CA        38.3960   -2.3740   76.8070 C.3   124  PHE124      0.1605
    146  C         37.5460   -2.6180   78.0540 C.2   124  PHE124      0.2264
    147  O         38.0790   -2.8080   79.1230 O.2   124  PHE124     -0.2867
    148  CB        38.4890   -0.8630   76.4880 C.3   124  PHE124      0.0534
    149  CG        39.8550   -0.4310   75.9980 C.ar  124  PHE124     -0.0203
    150  CD1       40.2980   -0.7750   74.7330 C.ar  124  PHE124     -0.0042
    151  CD2       40.6990    0.3130   76.8180 C.ar  124  PHE124     -0.0042
    152  CE1       41.5580   -0.3770   74.2910 C.ar  124  PHE124     -0.0003
    153  CE2       41.9760    0.6940   76.3810 C.ar  124  PHE124     -0.0003
    154  CZ        42.4030    0.3340   75.1290 C.ar  124  PHE124     -0.0000
@<TRIPOS>BOND
     1   109   110    1
     2   109   115    1
     3   110   111    1
     4   110   113    1
     5   115   114    1
     6   119   118    2
     7   111   112    2
     8   111   116   am
     9   118   117    1
    10   116   117    1
    11   113   114    1
    12   117   120    1
    13   120   121    1
    14   120   122    1
    15   121   123    1
    16   131   133   ar
    17   131   129   ar
    18   133   134   ar
    19   142   141    1
    20   141   143    1
    21   141   140    1
    22    49    47   ar
    23   136   137    1
    24   124   125    1
    25   128   129    1
    26   128   125    1
    27   129   130   ar
    28   135   134    1
    29   134   132   ar
    30    48    47   ar
    31    47    46    1
    32   140   137    1
    33   125   126    1
    34   126   127    2
    35   130   132   ar
    36   137   138    1
    37    41    39    1
    38    46    43    1
    39    67    65   ar
    40   106   103    1
    41   106   107    1
    42    40    38    1
    43    39    38    1
    44    43    42    1
    45    43    44    1
    46   104   103    1
    47   104   105    2
    48    37    36    2
    49   138   139    2
    50   103   102    1
    51   107   108    1
    52    38    35    1
    53    65    64    1
    54    65    66   ar
    55    42    36   am
    56    36    35    1
    57    44    45    2
    58    85    84    1
    59    64    61    1
    60    50    51    1
    61    35    34    1
    62    54    51    1
    63   102   108    1
    64   102    97   am
    65    33    31   ar
    66    51    52    1
    67    84    83    1
    68    84    86    1
    69    83    80    1
    70    61    60    1
    71    61    62    1
    72   152   150   ar
    73   152   154   ar
    74    98    97    2
    75    34    27   am
    76    97    96    1
    77    60    57   am
    78   150   149   ar
    79    31    32   ar
    80    31    30    1
    81   154   153   ar
    82    62    63    2
    83    62    68   am
    84    52    53    2
    85    80    81    1
    86    80    79    1
    87    57    58    2
    88    57    56    1
    89    81    82    2
    90   144   145    1
    91    93    92    2
    92    79    70   am
    93    27    28    2
    94    27    26    1
    95    30    29    1
    96    68    69    1
    97   149   148    1
    98   149   151   ar
    99    96    99    1
   100    96    95    1
   101    99   100    1
   102    56    55    1
   103    56    59    1
   104    12     9    1
   105   153   151   ar
   106    17    14    1
   107   148   145    1
   108    94    92   am
   109    92    91    1
   110    90    89    2
   111   145   146    1
   112     1     2    1
   113    26    29    1
   114    26    25    1
   115    70    69    1
   116    70    71    2
   117    69    72    1
   118    95    89   am
   119    95   101    1
   120     9    10    1
   121     9     8    1
   122    14    13    1
   123    14    15    1
   124    89    88    1
   125    72    73    1
   126   100   101    1
   127    11    10    2
   128     2     3    1
   129     2     5    1
   130    91    88    1
   131   146   147    2
   132     3     4    2
   133    25    20   am
   134    88    87    1
   135    75    73   ar
   136    75    77   ar
   137     6     5    1
   138    15    16    2
   139    73    74   ar
   140     5     7    1
   141    21    20    2
   142    20    19    1
   143    23    22    1
   144    77    78   ar
   145    74    76   ar
   146    19    22    1
   147    19    18    1
   148    22    24    1
   149    78    76   ar
