@<TRIPOS>MOLECULE
tmp/2jgbA00.pdb
 231 223 0 0 0
SMALL
GASTEIGER

@<TRIPOS>ATOM
      1  N        -17.0430    7.3130   24.8690 N.3    23  ARG23      -0.1231
      2  CA       -16.7000    8.7180   25.0990 C.3    23  ARG23       0.1694
      3  C        -17.9690    9.5070   25.3600 C.2    23  ARG23       0.2593
      4  O        -19.0130    8.9220   25.6030 O.2    23  ARG23      -0.2718
      5  CB       -15.8700    9.2990   23.9450 C.3    23  ARG23       0.0321
      6  CG       -16.4740    9.1730   22.5860 C.3    23  ARG23       0.0489
      7  CD       -15.3670    9.3130   21.5180 C.3    23  ARG23       0.2205
      8  NE       -15.3740    8.1720   20.6020 N.pl3  23  ARG23      -0.0865
      9  CZ       -14.3350    7.3870   20.3100 C.cat  23  ARG23       0.5346
     10  NH1      -13.1240    7.6050   20.8180 N.pl3  23  ARG23       0.1354
     11  NH2      -14.5110    6.3940   19.4520 N.pl3  23  ARG23       0.1354
     12  N        -17.8690   10.8370   25.3450 N.am   24  THR24      -0.1940
     13  CA       -19.0470   11.7010   25.3940 C.3    24  THR24       0.2013
     14  C        -19.1350   12.5120   24.0930 C.2    24  THR24       0.2484
     15  O        -18.1180   12.6930   23.4060 O.2    24  THR24      -0.2729
     16  CB       -18.9480   12.7080   26.5630 C.3    24  THR24       0.1807
     17  OG1      -17.6370   13.2770   26.5590 O.3    24  THR24      -0.2208
     18  CG2      -19.1930   12.0140   27.8960 C.3    24  THR24       0.0379
     19  N        -20.3460   12.9580   23.7210 N.am   25  PRO25      -0.2715
     20  CA       -20.4450   13.7170   22.4640 C.3    25  PRO25       0.1536
     21  C        -19.7670   15.0800   22.5820 C.2    25  PRO25       0.2599
     22  O        -19.7580   15.6630   23.6580 O.2    25  PRO25      -0.2715
     23  CB       -21.9570   13.9160   22.3000 C.3    25  PRO25       0.0310
     24  CG       -22.5040   13.8620   23.7050 C.3    25  PRO25       0.0237
     25  CD       -21.6580   12.8080   24.3800 C.3    25  PRO25       0.0939
     26  N        -19.2120   15.5650   21.4810 N.am   26  GLY26      -0.1941
     27  CA       -18.7690   16.9510   21.3830 C.3    26  GLY26       0.2014
     28  C        -17.3750   17.2550   21.8780 C.2    26  GLY26       0.2638
     29  O        -17.0540   18.4280   22.1190 O.2    26  GLY26      -0.2714
     30  N        -16.5430   16.2220   22.0460 N.am   27  ARG27      -0.1977
     31  CA       -15.1660   16.4170   22.5130 C.3    27  ARG27       0.1597
     32  C        -14.3120   17.0050   21.3980 C.2    27  ARG27       0.2287
     33  O        -14.4120   16.5630   20.2450 O.2    27  ARG27      -0.2864
     34  CB       -14.5340   15.1060   22.9820 C.3    27  ARG27       0.0334
     35  CG       -15.1040   14.5570   24.2570 C.3    27  ARG27       0.0492
     36  CD       -14.2930   13.3730   24.7540 C.3    27  ARG27       0.2205
     37  NE       -14.9540   12.7620   25.9040 N.pl3  27  ARG27      -0.0865
     38  CZ       -14.5900   11.6250   26.4840 C.cat  27  ARG27       0.5346
     39  NH1      -13.5470   10.9330   26.0340 N.pl3  27  ARG27       0.1354
     40  NH2      -15.2830   11.1830   27.5260 N.pl3  27  ARG27       0.1354
     41  N        -11.5320   16.8730   19.2810 N.3    29  THR29      -0.1203
     42  CA       -10.9230   15.5830   18.9930 C.3    29  THR29       0.1994
     43  C         -9.8600   15.6620   17.8990 C.2    29  THR29       0.2619
     44  O        -10.1780   15.8980   16.7300 O.2    29  THR29      -0.2717
     45  CB       -11.9990   14.5310   18.5920 C.3    29  THR29       0.1784
     46  OG1      -13.0760   14.5480   19.5390 O.3    29  THR29      -0.2211
     47  CG2      -11.3990   13.1300   18.5270 C.3    29  THR29       0.0376
     48  N         -8.6070   15.4550   18.2950 N.am   30  SER30      -0.1937
     49  CA        -7.5080   15.3050   17.3510 C.3    30  SER30       0.2055
     50  C         -7.3360   13.8210   17.0180 C.2    30  SER30       0.2643
     51  O         -8.0390   12.9710   17.5750 O.2    30  SER30      -0.2714
     52  CB        -6.2210   15.8810   17.9470 C.3    30  SER30       0.2130
     53  OG        -5.8060   15.1470   19.0890 O.3    30  SER30      -0.2179
     54  N         -6.4030   13.5210   16.1150 N.am   31  SER31      -0.1949
     55  CA        -6.0360   12.1440   15.7820 C.3    31  SER31       0.1924
     56  C         -5.5560   11.3900   17.0130 C.2    31  SER31       0.2314
     57  O         -6.0190   10.2820   17.2980 O.2    31  SER31      -0.2863
     58  CB        -4.9280   12.1240   14.7310 C.3    31  SER31       0.2116
     59  OG        -5.3490   12.7720   13.5510 O.3    31  SER31      -0.2180
     60  N         -8.3270   10.7870   19.6520 N.3    34  TYR34      -0.1241
     61  CA        -9.2790    9.7680   19.2100 C.3    34  TYR34       0.1605
     62  C         -8.6670    8.3780   19.4070 C.2    34  TYR34       0.2264
     63  O         -9.3160    7.4890   19.9660 O.2    34  TYR34      -0.2867
     64  CB        -9.7550    9.9700   17.7520 C.3    34  TYR34       0.0534
     65  CG       -10.8840    9.0220   17.3910 C.ar   34  TYR34      -0.0201
     66  CD1      -12.2160    9.3600   17.6400 C.ar   34  TYR34      -0.0009
     67  CD2      -10.6110    7.7620   16.8370 C.ar   34  TYR34      -0.0009
     68  CE1      -13.2570    8.4780   17.3280 C.ar   34  TYR34       0.0417
     69  CE2      -11.6380    6.8740   16.5260 C.ar   34  TYR34       0.0417
     70  CZ       -12.9530    7.2330   16.7760 C.ar   34  TYR34       0.1957
     71  OH       -13.9590    6.3420   16.4620 O.3    34  TYR34      -0.2866
     72  N        -22.3060    6.4560   25.3960 N.3    66  HIS66      -0.1241
     73  CA       -21.9810    6.8110   24.0010 C.3    66  HIS66       0.1621
     74  C        -20.7920    5.9250   23.6350 C.2    66  HIS66       0.2264
     75  O        -19.6150    6.2800   23.8680 O.2    66  HIS66      -0.2867
     76  CB       -21.5870    8.2930   23.9970 C.3    66  HIS66       0.0745
     77  CG       -21.1640    8.8530   22.6680 C.ar   66  HIS66       0.0817
     78  ND1      -21.8760    9.8490   22.0300 N.ar   66  HIS66      -0.2268
     79  CD2      -20.0720    8.6120   21.8940 C.ar   66  HIS66       0.1154
     80  CE1      -21.2430   10.1950   20.9180 C.ar   66  HIS66       0.1986
     81  NE2      -20.1410    9.4680   20.8200 N.ar   66  HIS66      -0.2212
     82  N        -19.2090    2.3310   21.2090 N.3    68  ASP68      -0.1239
     83  CA       -19.1860    1.7310   19.8600 C.3    68  ASP68       0.1674
     84  C        -18.3550    0.4450   19.8700 C.2    68  ASP68       0.2266
     85  O        -17.3610    0.3290   20.6300 O.2    68  ASP68      -0.2867
     86  CB       -18.4970    2.6510   18.8500 C.3    68  ASP68       0.1410
     87  CG       -19.0550    4.0960   18.7990 C.2    68  ASP68       0.3668
     88  OD1      -19.4060    4.5220   17.6970 O.co2  68  ASP68      -0.2456
     89  OD2      -19.0590    4.8200   19.8140 O.co2  68  ASP68      -0.2456
     90  N         -9.6410    1.7700   12.9920 N.3    78  PRO78      -0.2102
     91  CA       -10.9620    2.3760   12.6550 C.3    78  PRO78       0.1504
     92  C        -10.9500    3.8970   12.7330 C.2    78  PRO78       0.2576
     93  O        -11.7710    4.5000   13.4520 O.2    78  PRO78      -0.2718
     94  CB       -11.9250    1.7680   13.6920 C.3    78  PRO78       0.0282
     95  CG       -11.0750    1.3920   14.8460 C.3    78  PRO78       0.0208
     96  CD        -9.6460    1.1200   14.3190 C.3    78  PRO78       0.0893
     97  N        -10.0050    4.4910   12.0020 N.am   79  MET79      -0.1966
     98  CA        -9.8370    5.9400   11.9460 C.3    79  MET79       0.1736
     99  C         -9.6590    6.4310   10.5160 C.2    79  MET79       0.2616
    100  O         -9.0080    5.7610    9.6960 O.2    79  MET79      -0.2715
    101  CB        -8.6280    6.3620   12.7930 C.3    79  MET79       0.0427
    102  CG        -8.7110    5.9360   14.2520 C.3    79  MET79       0.0599
    103  SD        -7.1700    6.3810   15.0950 S.3    79  MET79      -0.1393
    104  CE        -7.2490    8.1840   15.0020 C.3    79  MET79       0.0692
    105  N        -10.2090    7.6210   10.2400 N.am   80  TRP80      -0.1960
    106  CA       -10.0490    8.3090    8.9340 C.3    80  TRP80       0.1771
    107  C         -8.5760    8.4390    8.5070 C.2    80  TRP80       0.2619
    108  O         -8.2480    8.3390    7.3240 O.2    80  TRP80      -0.2715
    109  CB       -10.6410    9.7280    8.9910 C.3    80  TRP80       0.0590
    110  CG       -12.0270    9.8420    9.4440 C.ar   80  TRP80       0.0006
    111  CD1      -13.0550    8.9560    9.2210 C.ar   80  TRP80       0.0946
    112  CD2      -12.5880   10.9330   10.1740 C.ar   80  TRP80       0.0152
    113  NE1      -14.2130    9.4280    9.7890 N.ar   80  TRP80      -0.2442
    114  CE2      -13.9580   10.6440   10.3730 C.ar   80  TRP80       0.0810
    115  CE3      -12.0640   12.1320   10.6860 C.ar   80  TRP80       0.0012
    116  CZ2      -14.8170   11.5100   11.0690 C.ar   80  TRP80       0.0191
    117  CZ3      -12.9260   12.9950   11.3790 C.ar   80  TRP80       0.0001
    118  CH2      -14.2810   12.6770   11.5620 C.ar   80  TRP80       0.0015
    119  N         -7.7010    8.6590    9.4840 N.am   81  GLU81      -0.1977
    120  CA        -6.2700    8.8960    9.2410 C.3    81  GLU81       0.1602
    121  C         -5.5140    7.6730    8.7440 C.2    81  GLU81       0.2287
    122  O         -4.4130    7.8090    8.2050 O.2    81  GLU81      -0.2864
    123  CB        -5.6000    9.3990   10.5200 C.3    81  GLU81       0.0415
    124  CG        -6.0280   10.8040   10.8980 C.3    81  GLU81       0.1163
    125  CD        -7.2830   10.8850   11.7680 C.2    81  GLU81       0.3649
    126  OE1       -8.0040    9.8750   11.9930 O.co2  81  GLU81      -0.2457
    127  OE2       -7.5610   12.0180   12.2190 O.co2  81  GLU81      -0.2457
    128  N        -18.1520    5.7720    4.2730 N.3    90  LYS90      -0.1245
    129  CA       -19.0030    4.8170    4.9720 C.3    90  LYS90       0.1561
    130  C        -20.4800    4.9730    4.5850 C.2    90  LYS90       0.2260
    131  O        -20.9720    6.0910    4.3430 O.2    90  LYS90      -0.2867
    132  CB       -18.8440    4.9660    6.4910 C.3    90  LYS90       0.0271
    133  CG       -19.2790    6.3400    7.0270 C.3    90  LYS90       0.0035
    134  CD       -19.1040    6.4490    8.5430 C.3    90  LYS90       0.0206
    135  CE       -19.4100    7.8550    8.9950 C.3    90  LYS90       0.1093
    136  NZ       -19.3690    7.9170   10.4810 N.3    90  LYS90      -0.1314
    137  N        -29.3750    4.5150   10.3630 N.3    94  ARG94      -0.1245
    138  CA       -29.8140    4.9700   11.6800 C.3    94  ARG94       0.1563
    139  C        -31.0340    4.1430   12.0710 C.2    94  ARG94       0.2260
    140  O        -31.9370    3.9290   11.2380 O.2    94  ARG94      -0.2867
    141  CB       -30.1360    6.4770   11.6400 C.3    94  ARG94       0.0307
    142  CG       -28.9600    7.3680   11.2390 C.3    94  ARG94       0.0489
    143  CD       -29.2660    8.8670   11.2950 C.3    94  ARG94       0.2205
    144  NE       -28.7040    9.4140   12.5300 N.pl3  94  ARG94      -0.0865
    145  CZ       -27.5090   10.0000   12.6470 C.cat  94  ARG94       0.5346
    146  NH1      -26.7350   10.1910   11.5890 N.pl3  94  ARG94       0.1354
    147  NH2      -27.0960   10.4270   13.8350 N.pl3  94  ARG94       0.1354
    148  N        -22.7230    1.9100   16.6410 N.3   128  SER128     -0.1217
    149  CA       -22.6430    3.0760   17.5530 C.3   128  SER128      0.1889
    150  C        -23.9410    3.1950   18.3370 C.2   128  SER128      0.2288
    151  O        -25.0210    3.2760   17.7490 O.2   128  SER128     -0.2866
    152  CB       -22.4090    4.3570   16.7510 C.3   128  SER128      0.2089
    153  OG       -21.2670    4.2390   15.9170 O.3   128  SER128     -0.2183
    154  N        -26.2990    5.2640   20.8590 N.3   130  ARG130     -0.1245
    155  CA       -26.4390    6.6890   21.1990 C.3   130  ARG130      0.1563
    156  C        -27.7000    6.8870   22.0470 C.2   130  ARG130      0.2260
    157  O        -28.3460    5.9200   22.3860 O.2   130  ARG130     -0.2867
    158  CB       -26.4330    7.5770   19.9500 C.3   130  ARG130      0.0307
    159  CG       -25.1220    7.5110   19.1590 C.3   130  ARG130      0.0489
    160  CD       -23.9480    8.1480   19.8620 C.3   130  ARG130      0.2205
    161  NE       -22.6760    8.1090   19.0880 N.pl3 130  ARG130     -0.0865
    162  CZ       -21.7880    7.1100   19.1360 C.cat 130  ARG130      0.5346
    163  NH1      -22.0310    6.0340   19.8760 N.pl3 130  ARG130      0.1354
    164  NH2      -20.6610    7.1800   18.4160 N.pl3 130  ARG130      0.1354
    165  N        -26.5430    3.5160   15.3880 N.3   135  ILE135     -0.1245
    166  CA       -26.1230    3.6890   14.0010 C.3   135  ILE135      0.1561
    167  C        -25.2220    2.5120   13.6440 C.2   135  ILE135      0.2260
    168  O        -24.3520    2.1140   14.4260 O.2   135  ILE135     -0.2867
    169  CB       -25.3900    5.0280   13.7630 C.3   135  ILE135      0.0252
    170  CG1      -26.2620    6.2250   14.1860 C.3   135  ILE135      0.0019
    171  CG2      -24.9800    5.1870   12.2970 C.3   135  ILE135      0.0019
    172  CD1      -25.9610    6.7220   15.6070 C.3   135  ILE135      0.0001
    173  N        -17.4360    0.7080    6.3660 N.3   139  TRP139     -0.1241
    174  CA       -16.4120    1.5590    5.7550 C.3   139  TRP139      0.1605
    175  C        -15.7760    0.8770    4.5830 C.2   139  TRP139      0.2264
    176  O        -15.4080   -0.2960    4.6980 O.2   139  TRP139     -0.2867
    177  CB       -15.2960    1.8290    6.7660 C.3   139  TRP139      0.0550
    178  CG       -15.7120    2.6830    7.9420 C.ar  139  TRP139      0.0003
    179  CD1      -16.9270    2.7290    8.5580 C.ar  139  TRP139      0.0946
    180  CD2      -14.8600    3.5810    8.6480 C.ar  139  TRP139      0.0152
    181  NE1      -16.9000    3.6410    9.6130 N.ar  139  TRP139     -0.2442
    182  CE2      -15.6380    4.1840    9.6770 C.ar  139  TRP139      0.0810
    183  CE3      -13.5070    3.9550    8.5000 C.ar  139  TRP139      0.0012
    184  CZ2      -15.0900    5.1230   10.5740 C.ar  139  TRP139      0.0191
    185  CZ3      -12.9810    4.9010    9.3880 C.ar  139  TRP139      0.0001
    186  CH2      -13.7700    5.4630   10.4000 C.ar  139  TRP139      0.0015
    187  N        -21.2750    8.7960    3.4780 N.3   171  LYS171     -0.1245
    188  CA       -20.4660    9.9480    3.9090 C.3   171  LYS171      0.1561
    189  C        -18.9890    9.6760    3.5900 C.2   171  LYS171      0.2260
    190  O        -18.4170    8.6970    4.0910 O.2   171  LYS171     -0.2867
    191  CB       -20.6400   10.1760    5.4210 C.3   171  LYS171      0.0271
    192  CG       -22.0350   10.6090    5.8550 C.3   171  LYS171      0.0035
    193  CD       -22.1060   10.8140    7.3660 C.3   171  LYS171      0.0206
    194  CE       -23.4900   11.3120    7.7680 C.3   171  LYS171      0.1093
    195  NZ       -23.4170   12.1750    8.9770 N.3   171  LYS171     -0.1314
    196  N        -16.6480   14.2750    6.1060 N.3   176  SER176     -0.1217
    197  CA       -16.8110   14.1550    7.5620 C.3   176  SER176      0.1889
    198  C        -15.8480   15.0400    8.3360 C.2   176  SER176      0.2288
    199  O        -16.2350   15.6710    9.3420 O.2   176  SER176     -0.2866
    200  CB       -16.6340   12.6940    8.0020 C.3   176  SER176      0.2089
    201  OG       -17.7680   11.9300    7.6270 O.3   176  SER176     -0.2183
    202  N        -16.9330   18.8090    8.0760 N.3   179  MET179     -0.1245
    203  CA       -18.2940   19.0540    8.5310 C.3   179  MET179      0.1570
    204  C        -18.2780   19.6700    9.9350 C.2   179  MET179      0.2261
    205  O        -17.5430   19.1870   10.8050 O.2   179  MET179     -0.2867
    206  CB       -19.0480   17.7270    8.5670 C.3   179  MET179      0.0387
    207  CG       -20.4910   17.8110    9.0120 C.3   179  MET179      0.0595
    208  SD       -20.9880   16.2090    9.6750 S.3   179  MET179     -0.1393
    209  CE       -20.6100   16.3980   11.4300 C.3   179  MET179      0.0692
    210  N        -26.2430   20.3610   20.4050 N.3   184  ARG184     -0.1245
    211  CA       -26.7130   18.9960   20.6710 C.3   184  ARG184      0.1563
    212  C        -26.1400   18.4830   21.9930 C.2   184  ARG184      0.2260
    213  O        -24.9370   18.2090   22.0940 O.2   184  ARG184     -0.2867
    214  CB       -26.2900   18.0620   19.5440 C.3   184  ARG184      0.0307
    215  CG       -26.9250   16.6920   19.6130 C.3   184  ARG184      0.0489
    216  CD       -26.1910   15.7570   18.6870 C.3   184  ARG184      0.2205
    217  NE       -27.1140   14.9610   17.8890 N.pl3 184  ARG184     -0.0865
    218  CZ       -26.7880   14.3530   16.7490 C.cat 184  ARG184      0.5346
    219  NH1      -25.5500   14.4480   16.2700 N.pl3 184  ARG184      0.1354
    220  NH2      -27.7020   13.6470   16.0910 N.pl3 184  ARG184      0.1354
    221  N        -26.4450   12.7250   23.2620 N.3   187  PHE187     -0.1241
    222  CA       -26.2450   11.8590   22.1100 C.3   187  PHE187      0.1605
    223  C        -25.2580   10.7790   22.4890 C.2   187  PHE187      0.2264
    224  O        -25.5910    9.6030   22.5330 O.2   187  PHE187     -0.2867
    225  CB       -25.7000   12.6650   20.9240 C.3   187  PHE187      0.0534
    226  CG       -25.6530   11.8880   19.6260 C.ar  187  PHE187     -0.0203
    227  CD1      -26.8030   11.2860   19.1170 C.ar  187  PHE187     -0.0042
    228  CD2      -24.4630   11.7970   18.9020 C.ar  187  PHE187     -0.0042
    229  CE1      -26.7690   10.5860   17.9110 C.ar  187  PHE187     -0.0003
    230  CE2      -24.4150   11.0910   17.6860 C.ar  187  PHE187     -0.0003
    231  CZ       -25.5770   10.4930   17.1940 C.ar  187  PHE187     -0.0000
@<TRIPOS>BOND
     1   187   188    1
     2   189   188    1
     3   189   190    2
     4   188   191    1
     5   128   129    1
     6   131   130    2
     7   175   176    2
     8   175   174    1
     9   130   129    1
    10   129   132    1
    11   191   192    1
    12   174   173    1
    13   174   177    1
    14   192   193    1
    15   196   197    1
    16   132   133    1
    17   177   178    1
    18   133   134    1
    19   108   107    2
    20   193   194    1
    21   197   200    1
    22   197   198    1
    23   201   200    1
    24   194   195    1
    25   178   179   ar
    26   178   180   ar
    27   202   203    1
    28   122   121    2
    29   198   199    2
    30   183   180   ar
    31   183   185   ar
    32   107   106    1
    33   107   119   am
    34   203   206    1
    35   203   204    1
    36   134   135    1
    37   179   181   ar
    38   206   207    1
    39   180   182   ar
    40   121   120    1
    41   106   109    1
    42   106   105    1
    43   109   110    1
    44   135   136    1
    45   207   208    1
    46   111   110   ar
    47   111   113   ar
    48   120   119    1
    49   120   123    1
    50   185   186   ar
    51   110   112   ar
    52   181   182   ar
    53   208   209    1
    54   182   184   ar
    55   100    99    2
    56   113   114   ar
    57   204   205    2
    58   112   114   ar
    59   112   115   ar
    60   105    99   am
    61   137   138    1
    62   114   116   ar
    63   186   184   ar
    64    99    98    1
    65   123   124    1
    66   115   117   ar
    67   124   125    1
    68   116   118   ar
    69   140   139    2
    70   142   143    1
    71   142   141    1
    72   143   144    1
    73   117   118   ar
    74   146   145    1
    75   141   138    1
    76   138   139    1
    77   125   126   ar
    78   125   127   ar
    79    98    97    1
    80    98   101    1
    81    97    92   am
    82   171   169    1
    83   144   145    2
    84   145   147    1
    85    91    92    1
    86    91    90    1
    87    91    94    1
    88    92    93    2
    89   101   102    1
    90    90    96    1
    91    59    58    1
    92   167   166    1
    93   167   168    2
    94    94    95    1
    95   169   166    1
    96   169   170    1
    97   166   165    1
    98   170   172    1
    99   102   103    1
   100    96    95    1
   101    58    55    1
   102   104   103    1
   103    55    54    1
   104    55    56    1
   105   153   152    1
   106   220   218    1
   107    54    50   am
   108   219   218    1
   109    71    70    1
   110    69    70   ar
   111    69    67   ar
   112   148   149    1
   113    44    43    2
   114   218   217    2
   115   152   149    1
   116    70    68   ar
   117    67    65   ar
   118    56    57    2
   119    50    49    1
   120    50    51    2
   121   231   230   ar
   122   231   229   ar
   123    68    66   ar
   124    49    52    1
   125    49    48    1
   126    65    66   ar
   127    65    64    1
   128   149   150    1
   129   230   228   ar
   130    88    87   ar
   131   151   150    2
   132    64    61    1
   133   217   216    1
   134    43    48   am
   135    43    42    1
   136   229   227   ar
   137    52    53    1
   138   164   162    1
   139    47    45    1
   140    45    42    1
   141    45    46    1
   142   216   215    1
   143    87    86    1
   144    87    89   ar
   145    86    83    1
   146   228   226   ar
   147    42    41    1
   148   161   162    2
   149   161   160    1
   150   227   226   ar
   151   162   163    1
   152   159   160    1
   153   159   158    1
   154    61    62    1
   155    61    60    1
   156    62    63    2
   157    11     9    1
   158   214   215    1
   159   214   211    1
   160   226   225    1
   161    83    84    1
   162    83    82    1
   163    84    85    2
   164   158   155    1
   165    33    32    2
   166     9     8    2
   167     9    10    1
   168   210   211    1
   169     8     7    1
   170   211   212    1
   171    81    80   ar
   172    81    79   ar
   173   154   155    1
   174    80    78   ar
   175   225   222    1
   176   155   156    1
   177    27    26    1
   178    27    28    1
   179    32    31    1
   180    26    21   am
   181     7     6    1
   182    28    30   am
   183    28    29    2
   184    79    77   ar
   185   212   213    2
   186    78    77   ar
   187    30    31    1
   188   156   157    2
   189   222   223    1
   190   222   221    1
   191    23    20    1
   192    23    24    1
   193    20    21    1
   194    20    19    1
   195   223   224    2
   196    31    34    1
   197    21    22    2
   198     6     5    1
   199    77    76    1
   200    34    35    1
   201    15    14    2
   202    74    75    2
   203    74    73    1
   204    24    25    1
   205    19    14   am
   206    19    25    1
   207     5     2    1
   208    76    73    1
   209    73    72    1
   210    14    13    1
   211    35    36    1
   212    36    37    1
   213     1     2    1
   214     2     3    1
   215    12     3   am
   216    12    13    1
   217     3     4    2
   218    13    16    1
   219    37    38    2
   220    39    38    1
   221    38    40    1
   222    17    16    1
   223    16    18    1
