@<TRIPOS>MOLECULE
tmp/2jgdA00.pdb
 143 137 0 0 0
SMALL
GASTEIGER

@<TRIPOS>ATOM
      1  N         47.1910  -11.0480   53.0690 N.3   207  SER207     -0.1217
      2  CA        46.9530  -12.4270   53.4690 C.3   207  SER207      0.1889
      3  C         46.4630  -12.4560   54.9020 C.2   207  SER207      0.2288
      4  O         47.0210  -11.7810   55.7530 O.2   207  SER207     -0.2866
      5  CB        48.2440  -13.2310   53.3600 C.3   207  SER207      0.2089
      6  OG        48.5340  -13.5690   52.0110 O.3   207  SER207     -0.2183
      7  N         41.6410  -19.4820   55.2560 N.3   218  HIS218     -0.1241
      8  CA        42.7040  -18.5940   54.7940 C.3   218  HIS218      0.1621
      9  C         42.1760  -17.6670   53.6990 C.2   218  HIS218      0.2264
     10  O         41.5010  -18.1090   52.7590 O.2   218  HIS218     -0.2867
     11  CB        43.9010  -19.3790   54.2710 C.3   218  HIS218      0.0745
     12  CG        45.0770  -18.5150   53.9350 C.ar  218  HIS218      0.0817
     13  ND1       45.6960  -17.7090   54.8670 N.ar  218  HIS218     -0.2268
     14  CD2       45.7110  -18.2870   52.7610 C.ar  218  HIS218      0.1154
     15  CE1       46.6650  -17.0270   54.2820 C.ar  218  HIS218      0.1986
     16  NE2       46.6990  -17.3640   53.0050 N.ar  218  HIS218     -0.2212
     17  N         43.3380  -14.8680   50.7820 N.3   220  ALA220     -0.1245
     18  CA        44.4440  -14.3200   50.0040 C.3   220  ALA220      0.1562
     19  C         43.9410  -13.4180   48.9000 C.2   220  ALA220      0.2260
     20  O         43.3250  -13.8670   47.9140 O.2   220  ALA220     -0.2867
     21  CB        45.3210  -15.4370   49.4440 C.3   220  ALA220      0.0290
     22  N         47.8360   -9.1540   44.5860 N.3   223  PHE223     -0.1241
     23  CA        48.3810   -7.8820   44.1190 C.3   223  PHE223      0.1605
     24  C         48.0700   -7.7460   42.6550 C.2   223  PHE223      0.2264
     25  O         47.8220   -8.7390   41.9820 O.2   223  PHE223     -0.2867
     26  CB        49.9020   -7.8750   44.2780 C.3   223  PHE223      0.0534
     27  CG        50.3630   -7.7090   45.6820 C.ar  223  PHE223     -0.0203
     28  CD1       50.7210   -6.4480   46.1660 C.ar  223  PHE223     -0.0042
     29  CD2       50.4340   -8.8070   46.5380 C.ar  223  PHE223     -0.0042
     30  CE1       51.1480   -6.2820   47.4900 C.ar  223  PHE223     -0.0003
     31  CE2       50.8960   -8.6640   47.8540 C.ar  223  PHE223     -0.0003
     32  CZ        51.2540   -7.4010   48.3340 C.ar  223  PHE223     -0.0000
     33  N         47.2290  -24.3570   44.9430 N.3   242  ARG242     -0.1245
     34  CA        46.8320  -24.6050   46.3330 C.3   242  ARG242      0.1563
     35  C         46.0270  -25.8930   46.4580 C.2   242  ARG242      0.2260
     36  O         46.0630  -26.5720   47.4970 O.2   242  ARG242     -0.2867
     37  CB        45.9910  -23.4370   46.8660 C.3   242  ARG242      0.0307
     38  CG        46.7860  -22.1380   47.0240 C.3   242  ARG242      0.0489
     39  CD        45.8750  -20.9510   47.3500 C.3   242  ARG242      0.2205
     40  NE        46.5280  -19.6830   47.0570 N.pl3 242  ARG242     -0.0865
     41  CZ        47.1850  -18.9530   47.9480 C.cat 242  ARG242      0.5346
     42  NH1       47.2600  -19.3560   49.2080 N.pl3 242  ARG242      0.1354
     43  NH2       47.7490  -17.8080   47.5840 N.pl3 242  ARG242      0.1354
     44  N         48.2570  -29.0760   46.3860 N.3   245  ARG245     -0.1245
     45  CA        49.0810  -29.4070   47.5480 C.3   245  ARG245      0.1563
     46  C         48.2680  -29.9650   48.6950 C.2   245  ARG245      0.2260
     47  O         48.8090  -30.2600   49.7520 O.2   245  ARG245     -0.2867
     48  CB        49.8800  -28.1950   48.0290 C.3   245  ARG245      0.0307
     49  CG        49.0160  -27.0500   48.4210 C.3   245  ARG245      0.0489
     50  CD        49.7020  -26.1550   49.4010 C.3   245  ARG245      0.2205
     51  NE        50.5780  -25.1850   48.7600 N.pl3 245  ARG245     -0.0865
     52  CZ        50.4270  -23.8710   48.8430 C.cat 245  ARG245      0.5346
     53  NH1       49.4020  -23.3450   49.5080 N.pl3 245  ARG245      0.1354
     54  NH2       51.3120  -23.0870   48.2670 N.pl3 245  ARG245      0.1354
     55  N         48.0640  -15.2950   61.0090 N.3   405  MET405     -0.1245
     56  CA        48.3960  -16.5710   60.4100 C.3   405  MET405      0.1570
     57  C         49.3420  -17.3810   61.2880 C.2   405  MET405      0.2261
     58  O         50.1600  -16.8280   62.0150 O.2   405  MET405     -0.2867
     59  CB        49.0550  -16.3450   59.0650 C.3   405  MET405      0.0387
     60  CG        48.0920  -15.9160   57.9720 C.3   405  MET405      0.0595
     61  SD        48.9780  -15.1430   56.6250 S.3   405  MET405     -0.1393
     62  CE        49.7960  -16.5720   55.9500 C.3   405  MET405      0.0692
     63  N         51.5480  -21.3420   57.6110 N.3   409  SER409     -0.1202
     64  CA        50.9650  -20.6130   56.4770 C.3   409  SER409      0.2020
     65  C         51.9950  -19.8090   55.6760 C.2   409  SER409      0.2619
     66  O         51.6750  -19.2910   54.6130 O.2   409  SER409     -0.2717
     67  CB        49.8320  -19.6880   56.9400 C.3   409  SER409      0.2103
     68  OG        48.5970  -20.3710   56.9580 O.3   409  SER409     -0.2182
     69  N         53.2190  -19.6880   56.1960 N.am  410  PHE410     -0.1961
     70  CA        54.2340  -18.8500   55.5460 C.3   410  PHE410      0.1771
     71  C         55.1300  -19.7080   54.6710 C.2   410  PHE410      0.2620
     72  O         56.2550  -20.0760   55.0530 O.2   410  PHE410     -0.2715
     73  CB        55.0640  -18.0580   56.5700 C.3   410  PHE410      0.0574
     74  CG        54.3150  -16.9140   57.2070 C.ar  410  PHE410     -0.0200
     75  CD1       53.5810  -17.1140   58.3680 C.ar  410  PHE410     -0.0042
     76  CD2       54.3330  -15.6410   56.6340 C.ar  410  PHE410     -0.0042
     77  CE1       52.8630  -16.0710   58.9390 C.ar  410  PHE410     -0.0003
     78  CE2       53.6380  -14.5950   57.2090 C.ar  410  PHE410     -0.0003
     79  CZ        52.8970  -14.8110   58.3670 C.ar  410  PHE410     -0.0000
     80  N         54.6190  -20.0270   53.4890 N.am  411  THR411     -0.1937
     81  CA        55.1900  -21.0670   52.6490 C.3   411  THR411      0.2028
     82  C         56.4640  -20.5580   51.9580 C.2   411  THR411      0.2642
     83  O         57.3050  -21.3310   51.5210 O.2   411  THR411     -0.2714
     84  CB        54.1610  -21.4890   51.5880 C.3   411  THR411      0.1808
     85  OG1       53.4550  -20.3280   51.1390 O.3   411  THR411     -0.2208
     86  CG2       53.1480  -22.4580   52.1900 C.3   411  THR411      0.0379
     87  N         56.6050  -19.2400   51.9050 N.am  412  TRP412     -0.1973
     88  CA        57.6880  -18.6140   51.1820 C.3   412  TRP412      0.1640
     89  C         58.9640  -18.3030   51.9970 C.2   412  TRP412      0.2290
     90  O         60.0220  -18.0270   51.4170 O.2   412  TRP412     -0.2864
     91  CB        57.1800  -17.3770   50.4390 C.3   412  TRP412      0.0576
     92  CG        56.5610  -17.7230   49.1310 C.ar  412  TRP412      0.0006
     93  CD1       55.2350  -18.0060   48.8820 C.ar  412  TRP412      0.0946
     94  CD2       57.2420  -17.8900   47.8980 C.ar  412  TRP412      0.0152
     95  NE1       55.0600  -18.3080   47.5650 N.ar  412  TRP412     -0.2442
     96  CE2       56.2740  -18.2380   46.9320 C.ar  412  TRP412      0.0810
     97  CE3       58.5800  -17.7690   47.5060 C.ar  412  TRP412      0.0012
     98  CZ2       56.6000  -18.4610   45.6080 C.ar  412  TRP412      0.0191
     99  CZ3       58.9030  -17.9780   46.1760 C.ar  412  TRP412      0.0001
    100  CH2       57.9230  -18.3310   45.2480 C.ar  412  TRP412      0.0015
    101  N         63.3530  -16.5420   50.6430 N.3   416  LEU416     -0.1245
    102  CA        63.6550  -15.1190   50.5360 C.3   416  LEU416      0.1561
    103  C         65.1390  -14.8510   50.7100 C.2   416  LEU416      0.2260
    104  O         65.8360  -15.5960   51.4000 O.2   416  LEU416     -0.2867
    105  CB        62.8670  -14.3310   51.5670 C.3   416  LEU416      0.0270
    106  CG        61.3620  -14.5940   51.6530 C.3   416  LEU416      0.0019
    107  CD1       60.7660  -13.6700   52.6560 C.3   416  LEU416      0.0001
    108  CD2       60.6840  -14.3980   50.3030 C.3   416  LEU416      0.0001
    109  N         53.9080  -18.5350   41.7630 N.3   552  THR552     -0.1203
    110  CA        53.7700  -17.5980   42.8680 C.3   552  THR552      0.1994
    111  C         53.1800  -18.1760   44.1480 C.2   552  THR552      0.2617
    112  O         53.4110  -17.6440   45.2340 O.2   552  THR552     -0.2717
    113  CB        52.8890  -16.4320   42.4150 C.3   552  THR552      0.1784
    114  OG1       53.5150  -15.7890   41.3100 O.3   552  THR552     -0.2211
    115  CG2       52.6380  -15.4720   43.5060 C.3   552  THR552      0.0376
    116  N         52.3770  -19.2280   44.0290 N.am  553  ALA553     -0.1979
    117  CA        51.7160  -19.7710   45.2010 C.3   553  ALA553      0.1597
    118  C         52.5220  -20.9110   45.7750 C.2   553  ALA553      0.2287
    119  O         52.4370  -21.1860   46.9660 O.2   553  ALA553     -0.2864
    120  CB        50.3350  -20.2210   44.8680 C.3   553  ALA553      0.0319
    121  N         57.0480   -7.3110   46.5000 N.3   588  GLY588     -0.1210
    122  CA        57.7390   -8.3040   47.3450 C.3   588  GLY588      0.1956
    123  C         57.4640   -9.7510   46.9110 C.2   588  GLY588      0.2612
    124  O         57.7230  -10.7020   47.6510 O.2   588  GLY588     -0.2717
    125  N         56.9550   -9.9220   45.7020 N.am  589  ARG589     -0.1965
    126  CA        56.4440  -11.2140   45.2880 C.3   589  ARG589      0.1729
    127  C         57.5100  -11.9830   44.5030 C.2   589  ARG589      0.2616
    128  O         57.9230  -11.5680   43.4110 O.2   589  ARG589     -0.2715
    129  CB        55.1660  -11.0200   44.4680 C.3   589  ARG589      0.0348
    130  CG        53.9120  -10.8340   45.3530 C.3   589  ARG589      0.0492
    131  CD        53.6830  -12.1310   46.0580 C.3   589  ARG589      0.2205
    132  NE        52.6610  -12.1360   47.0960 N.pl3 589  ARG589     -0.0865
    133  CZ        51.5060  -12.7640   46.9490 C.cat 589  ARG589      0.5346
    134  NH1       51.2390  -13.3480   45.7850 N.pl3 589  ARG589      0.1354
    135  NH2       50.6130  -12.7860   47.9340 N.pl3 589  ARG589      0.1354
    136  N         58.0040  -13.0690   45.0910 N.am  590  MET590     -0.1977
    137  CA        58.9670  -13.9350   44.4150 C.3   590  MET590      0.1605
    138  C         58.2560  -14.8820   43.4500 C.2   590  MET590      0.2287
    139  O         57.0610  -15.1230   43.5650 O.2   590  MET590     -0.2864
    140  CB        59.7610  -14.7570   45.4270 C.3   590  MET590      0.0413
    141  CG        60.4940  -13.9450   46.4610 C.3   590  MET590      0.0598
    142  SD        61.2510  -12.4340   45.8550 S.3   590  MET590     -0.1393
    143  CE        62.5610  -13.0940   44.8720 C.3   590  MET590      0.0692
@<TRIPOS>BOND
     1   114   113    1
     2   109   110    1
     3    25    24    2
     4   113   110    1
     5   113   115    1
     6    24    23    1
     7   110   111    1
     8   128   127    2
     9   138   139    2
    10   138   137    1
    11   116   111   am
    12   116   117    1
    13    23    26    1
    14    23    22    1
    15   111   112    2
    16    26    27    1
    17   137   136    1
    18   137   140    1
    19   129   126    1
    20   129   130    1
    21   127   136   am
    22   127   126    1
    23   120   117    1
    24   143   142    1
    25    33    34    1
    26   117   118    1
    27   100    98   ar
    28   100    99   ar
    29   126   125    1
    30   130   131    1
    31   140   141    1
    32    98    96   ar
    33    27    28   ar
    34    27    29   ar
    35   125   123   am
    36   118   119    2
    37   134   133    1
    38   142   141    1
    39   131   132    1
    40    28    30   ar
    41    99    97   ar
    42    34    35    1
    43    34    37    1
    44    44    45    1
    45    35    36    2
    46   121   122    1
    47    29    31   ar
    48    37    38    1
    49   123   122    1
    50   123   124    2
    51    96    95   ar
    52    96    94   ar
    53   133   132    2
    54   133   135    1
    55    38    39    1
    56    40    39    1
    57    40    41    2
    58    30    32   ar
    59    97    94   ar
    60    45    48    1
    61    45    46    1
    62    95    93   ar
    63    43    41    1
    64    31    32   ar
    65    94    92   ar
    66    20    19    2
    67    41    42    1
    68    48    49    1
    69    54    52    1
    70    49    50    1
    71    46    47    2
    72    51    52    2
    73    51    50    1
    74    52    53    1
    75    93    92   ar
    76    19    18    1
    77    92    91    1
    78    21    18    1
    79    18    17    1
    80   108   106    1
    81    91    88    1
    82   102   101    1
    83   102   103    1
    84   102   105    1
    85   103   104    2
    86    85    84    1
    87    88    87    1
    88    88    89    1
    89    90    89    2
    90    83    82    2
    91   105   106    1
    92    84    86    1
    93    84    81    1
    94   106   107    1
    95    87    82   am
    96    82    81    1
    97     6     5    1
    98    81    80    1
    99    10     9    2
   100    14    16   ar
   101    14    12   ar
   102    16    15   ar
   103     1     2    1
   104     5     2    1
   105     2     3    1
   106    80    71   am
   107     9     8    1
   108    12    11    1
   109    12    13   ar
   110    11     8    1
   111    15    13   ar
   112    66    65    2
   113    71    72    2
   114    71    70    1
   115     8     7    1
   116     3     4    2
   117    70    69    1
   118    70    73    1
   119    65    69   am
   120    65    64    1
   121    62    61    1
   122    64    67    1
   123    64    63    1
   124    73    74    1
   125    61    60    1
   126    76    74   ar
   127    76    78   ar
   128    67    68    1
   129    74    75   ar
   130    78    79   ar
   131    60    59    1
   132    79    77   ar
   133    75    77   ar
   134    59    56    1
   135    56    55    1
   136    56    57    1
   137    57    58    2
