@<TRIPOS>MOLECULE
tmp/2jgqA00.pdb
 93 88 0 0 0
SMALL
GASTEIGER

@<TRIPOS>ATOM
      1  N         75.8020   -2.7760   40.9070 N.3   125  LEU125     -0.1245
      2  CA        74.4530   -3.3240   40.9260 C.3   125  LEU125      0.1561
      3  C         74.4470   -4.7960   41.3290 C.2   125  LEU125      0.2260
      4  O         73.5630   -5.2260   42.0690 O.2   125  LEU125     -0.2867
      5  CB        73.7940   -3.1410   39.5540 C.3   125  LEU125      0.0270
      6  CG        72.3240   -3.5360   39.3650 C.3   125  LEU125      0.0019
      7  CD1       71.4450   -2.9380   40.4610 C.3   125  LEU125      0.0001
      8  CD2       71.8680   -3.0490   37.9950 C.3   125  LEU125      0.0001
      9  N         74.4810   -5.2150   45.0040 N.3   128  ARG128     -0.1231
     10  CA        73.1590   -4.8210   45.4670 C.3   128  ARG128      0.1694
     11  C         72.2030   -6.0000   45.3360 C.2   128  ARG128      0.2591
     12  O         71.4180   -6.2840   46.2340 O.2   128  ARG128     -0.2718
     13  CB        72.6240   -3.6650   44.6180 C.3   128  ARG128      0.0321
     14  CG        71.4220   -2.9640   45.2270 C.3   128  ARG128      0.0489
     15  CD        71.9030   -1.8990   46.1930 C.3   128  ARG128      0.2205
     16  NE        70.9590   -1.6650   47.2710 N.pl3 128  ARG128     -0.0865
     17  CZ        71.1740   -0.8230   48.2720 C.cat 128  ARG128      0.5346
     18  NH1       72.3020   -0.1280   48.3250 N.pl3 128  ARG128      0.1354
     19  NH2       70.2660   -0.6910   49.2260 N.pl3 128  ARG128      0.1354
     20  N         72.2880   -6.6840   44.2030 N.am  129  GLU129     -0.1979
     21  CA        71.4250   -7.8160   43.9130 C.3   129  GLU129      0.1602
     22  C         71.7080   -9.0860   44.7170 C.2   129  GLU129      0.2287
     23  O         70.9000  -10.0170   44.7130 O.2   129  GLU129     -0.2864
     24  CB        71.4730   -8.1090   42.4100 C.3   129  GLU129      0.0415
     25  CG        70.7270   -7.0760   41.5720 C.3   129  GLU129      0.1163
     26  CD        70.9840   -7.2200   40.0800 C.2   129  GLU129      0.3649
     27  OE1       70.1680   -6.6940   39.2890 O.co2 129  GLU129     -0.2457
     28  OE2       72.0030   -7.8440   39.6970 O.co2 129  GLU129     -0.2457
     29  N         71.2210   -7.8180   51.3280 N.3   132  PHE132     -0.1241
     30  CA        71.6220   -6.8580   52.3490 C.3   132  PHE132      0.1605
     31  C         73.0110   -7.1260   52.9250 C.2   132  PHE132      0.2264
     32  O         73.8100   -6.2010   53.0590 O.2   132  PHE132     -0.2867
     33  CB        70.5980   -6.8420   53.4870 C.3   132  PHE132      0.0534
     34  CG        69.2230   -6.3850   53.0740 C.ar  132  PHE132     -0.0203
     35  CD1       68.9610   -5.9860   51.7640 C.ar  132  PHE132     -0.0042
     36  CD2       68.1860   -6.3560   54.0010 C.ar  132  PHE132     -0.0042
     37  CE1       67.6900   -5.5650   51.3850 C.ar  132  PHE132     -0.0003
     38  CE2       66.9130   -5.9370   53.6340 C.ar  132  PHE132     -0.0003
     39  CZ        66.6650   -5.5400   52.3180 C.ar  132  PHE132     -0.0000
     40  N         75.6300    2.0660   40.2340 N.3   161  TRP161     -0.1241
     41  CA        74.5500    1.9040   39.2710 C.3   161  TRP161      0.1605
     42  C         73.6800    3.1460   39.1360 C.2   161  TRP161      0.2264
     43  O         72.7670    3.1820   38.3140 O.2   161  TRP161     -0.2867
     44  CB        73.6820    0.6960   39.6460 C.3   161  TRP161      0.0550
     45  CG        73.3790    0.5730   41.1170 C.ar  161  TRP161      0.0003
     46  CD1       74.1580   -0.0240   42.0720 C.ar  161  TRP161      0.0946
     47  CD2       72.2170    1.0550   41.7940 C.ar  161  TRP161      0.0152
     48  NE1       73.5470    0.0550   43.3000 N.ar  161  TRP161     -0.2442
     49  CE2       72.3540    0.7120   43.1580 C.ar  161  TRP161      0.0810
     50  CE3       71.0700    1.7430   41.3810 C.ar  161  TRP161      0.0012
     51  CZ2       71.3850    1.0350   44.1130 C.ar  161  TRP161      0.0191
     52  CZ3       70.1080    2.0630   42.3280 C.ar  161  TRP161      0.0001
     53  CH2       70.2720    1.7090   43.6810 C.ar  161  TRP161      0.0015
     54  N         73.1240    8.2560   35.3760 N.3   165  THR165     -0.1218
     55  CA        71.9190    7.6050   34.8550 C.3   165  THR165      0.1862
     56  C         70.7310    8.5680   34.7800 C.2   165  THR165      0.2287
     57  O         70.8450    9.6830   35.3320 O.2   165  THR165     -0.2866
     58  CB        71.5280    6.4040   35.7450 C.3   165  THR165      0.1770
     59  OG1       72.5940    5.4490   35.7450 O.3   165  THR165     -0.2211
     60  CG2       70.2570    5.7420   35.2400 C.3   165  THR165      0.0375
     61  N         68.9270    6.7200   39.2190 N.3   167  SER167     -0.1202
     62  CA        68.7760    7.2690   40.6050 C.3   167  SER167      0.2020
     63  C         68.2580    6.2620   41.6290 C.2   167  SER167      0.2619
     64  O         67.2170    5.6450   41.4300 O.2   167  SER167     -0.2717
     65  CB        67.8350    8.4650   40.6020 C.3   167  SER167      0.2103
     66  OG        67.4170    8.7470   41.9300 O.3   167  SER167     -0.2182
     67  N         68.9800    6.1210   42.7350 N.am  168  ALA168     -0.1965
     68  CA        68.6010    5.1920   43.7960 C.3   168  ALA168      0.1728
     69  C         67.2400    5.5440   44.4050 C.2   168  ALA168      0.2616
     70  O         66.9030    6.7180   44.5600 O.2   168  ALA168     -0.2715
     71  CB        69.6770    5.1880   44.8820 C.3   168  ALA168      0.0334
     72  N         66.4620    4.5230   44.7550 N.am  169  SER169     -0.1950
     73  CA        65.1420    4.7440   45.3480 C.3   169  SER169      0.1924
     74  C         65.2510    5.2880   46.7700 C.2   169  SER169      0.2314
     75  O         66.2920    5.1510   47.4220 O.2   169  SER169     -0.2863
     76  CB        64.3350    3.4380   45.3600 C.3   169  SER169      0.2116
     77  OG        64.8730    2.4840   46.2620 O.3   169  SER169     -0.2180
     78  N         65.9100    2.6370   49.0820 N.3   172  ASP172     -0.1239
     79  CA        67.3230    2.2900   48.9990 C.3   172  ASP172      0.1674
     80  C         68.1730    3.2320   49.8270 C.2   172  ASP172      0.2266
     81  O         69.0040    2.8090   50.6280 O.2   172  ASP172     -0.2867
     82  CB        67.8010    2.3650   47.5530 C.3   172  ASP172      0.1410
     83  CG        67.3520    1.1850   46.7240 C.2   172  ASP172      0.3668
     84  OD1       67.5900    1.2220   45.5000 O.co2 172  ASP172     -0.2456
     85  OD2       66.7760    0.2310   47.2890 O.co2 172  ASP172     -0.2456
     86  N         64.2740   15.2780   41.8610 N.3   200  ASN200     -0.1240
     87  CA        64.3100   14.3990   43.0280 C.3   200  ASN200      0.1653
     88  C         65.1280   14.8950   44.2160 C.2   200  ASN200      0.2266
     89  O         65.1870   14.2210   45.2430 O.2   200  ASN200     -0.2867
     90  CB        64.8340   13.0140   42.6350 C.3   200  ASN200      0.1155
     91  CG        66.2630   13.0540   42.1100 C.2   200  ASN200      0.2627
     92  OD1       67.0490   13.9360   42.4670 O.2   200  ASN200     -0.2716
     93  ND2       66.6090   12.0820   41.2700 N.am  200  ASN200     -0.0877
@<TRIPOS>BOND
     1    56    55    1
     2    56    57    2
     3    55    54    1
     4    55    58    1
     5    60    58    1
     6    59    58    1
     7     8     6    1
     8    43    42    2
     9    42    41    1
    10    61    62    1
    11    41    44    1
    12    41    40    1
    13    27    26   ar
    14     6     5    1
    15     6     7    1
    16     5     2    1
    17    44    45    1
    18    28    26   ar
    19    26    25    1
    20    65    62    1
    21    65    66    1
    22    62    63    1
    23     1     2    1
    24     2     3    1
    25    45    47   ar
    26    45    46   ar
    27    93    91   am
    28     3     4    2
    29    50    47   ar
    30    50    52   ar
    31    64    63    2
    32    25    24    1
    33    63    67   am
    34    47    49   ar
    35    86    87    1
    36    46    48   ar
    37    91    92    2
    38    91    90    1
    39    52    53   ar
    40    24    21    1
    41    90    87    1
    42    67    68    1
    43    87    88    1
    44    49    48   ar
    45    49    51   ar
    46    53    51   ar
    47    68    69    1
    48    68    71    1
    49    21    20    1
    50    21    22    1
    51    20    11   am
    52    88    89    2
    53    69    70    2
    54    69    72   am
    55    13    14    1
    56    13    10    1
    57    23    22    2
    58    72    73    1
    59     9    10    1
    60    14    15    1
    61    11    10    1
    62    11    12    2
    63    73    76    1
    64    73    74    1
    65    76    77    1
    66    84    83   ar
    67    15    16    1
    68    83    85   ar
    69    83    82    1
    70    74    75    2
    71    16    17    2
    72    82    79    1
    73    17    18    1
    74    17    19    1
    75    79    78    1
    76    79    80    1
    77    80    81    2
    78    29    30    1
    79    37    35   ar
    80    37    39   ar
    81    35    34   ar
    82    39    38   ar
    83    30    31    1
    84    30    33    1
    85    31    32    2
    86    34    33    1
    87    34    36   ar
    88    38    36   ar
