@<TRIPOS>MOLECULE
tmp/2jgrA00.pdb
 69 64 0 0 0
SMALL
GASTEIGER

@<TRIPOS>ATOM
      1  N         17.3990   25.6980   -4.3530 N.3     9  ASN9       -0.1240
      2  CA        16.6410   25.7300   -3.1660 C.3     9  ASN9        0.1653
      3  C         16.8410   24.4010   -2.5310 C.2     9  ASN9        0.2266
      4  O         16.7600   23.3730   -3.2260 O.2     9  ASN9       -0.2867
      5  CB        15.1880   25.8180   -3.5210 C.3     9  ASN9        0.1155
      6  CG        14.3350   25.8490   -2.3150 C.2     9  ASN9        0.2627
      7  OD1       14.5600   26.6870   -1.4650 O.2     9  ASN9       -0.2716
      8  ND2       13.3700   24.9300   -2.2040 N.am    9  ASN9       -0.0877
      9  N         15.2180   22.2400   -0.9650 N.3    11  LYS11      -0.1245
     10  CA        14.2160   21.1690   -1.1530 C.3    11  LYS11       0.1561
     11  C         14.3390   20.4460   -2.4890 C.2    11  LYS11       0.2260
     12  O         14.5760   19.2210   -2.5690 O.2    11  LYS11      -0.2867
     13  CB        12.8010   21.7130   -1.0110 C.3    11  LYS11       0.0271
     14  CG        12.4390   22.1780    0.4190 C.3    11  LYS11       0.0035
     15  CD        11.1320   23.0120    0.4380 C.3    11  LYS11       0.0206
     16  CE         9.9050   22.1690   -0.0870 C.3    11  LYS11       0.1093
     17  NZ         8.5560   22.4190    0.5680 N.3    11  LYS11      -0.1314
     18  N         14.1300   26.9330   -8.0180 N.3    60  GLY60      -0.1210
     19  CA        13.1590   27.0970   -6.9280 C.3    60  GLY60       0.1956
     20  C         11.8120   27.5170   -7.4960 C.2    60  GLY60       0.2612
     21  O         11.6120   27.5330   -8.7340 O.2    60  GLY60      -0.2717
     22  N         10.8740   27.8160   -6.5900 N.am   61  GLY61      -0.1942
     23  CA         9.5410   28.3160   -6.9620 C.3    61  GLY61       0.2014
     24  C          9.6080   29.8030   -6.8030 C.2    61  GLY61       0.2639
     25  O         10.7190   30.4050   -6.7870 O.2    61  GLY61      -0.2714
     26  N          8.4490   30.4280   -6.6380 N.am   62  ASP62      -0.1957
     27  CA         8.4450   31.9030   -6.5110 C.3    62  ASP62       0.1840
     28  C          9.3300   32.4540   -5.3660 C.2    62  ASP62       0.2623
     29  O         10.0570   33.4300   -5.5760 O.2    62  ASP62      -0.2715
     30  CB         7.0140   32.4730   -6.5520 C.3    62  ASP62       0.1450
     31  CG         6.1790   31.8510   -7.6960 C.2    62  ASP62       0.3671
     32  OD1        5.0570   31.3390   -7.4280 O.co2  62  ASP62      -0.2456
     33  OD2        6.6600   31.7990   -8.8650 O.co2  62  ASP62      -0.2456
     34  N          9.3420   31.8100   -4.2030 N.am   63  GLY63      -0.1940
     35  CA        10.1110   32.3000   -3.0540 C.3    63  GLY63       0.2014
     36  C         11.5970   32.4340   -3.2750 C.2    63  GLY63       0.2639
     37  O         12.2040   33.4320   -2.8960 O.2    63  GLY63      -0.2714
     38  N         12.1820   31.4140   -3.8910 N.am   64  THR64      -0.1950
     39  CA        13.5920   31.4260   -4.2480 C.3    64  THR64       0.1897
     40  C         13.8180   32.4640   -5.3280 C.2    64  THR64       0.2313
     41  O         14.8330   33.1860   -5.3190 O.2    64  THR64      -0.2863
     42  CB        13.9840   30.0930   -4.8220 C.3    64  THR64       0.1794
     43  OG1       13.6940   29.0890   -3.8570 O.3    64  THR64      -0.2208
     44  CG2       15.4630   30.0360   -5.1540 C.3    64  THR64       0.0378
     45  N         14.1140   35.6160   -3.4910 N.3    67  GLU67      -0.1245
     46  CA        15.2530   35.8300   -2.6200 C.3    67  GLU67       0.1567
     47  C         16.4020   36.2360   -3.5010 C.2    67  GLU67       0.2260
     48  O         17.1570   37.1560   -3.2010 O.2    67  GLU67      -0.2867
     49  CB        15.5880   34.6090   -1.7940 C.3    67  GLU67       0.0388
     50  CG        14.4310   33.9880   -1.0020 C.3    67  GLU67       0.1160
     51  CD        14.9350   32.8330   -0.0840 C.2    67  GLU67       0.3649
     52  OE1       16.1840   32.6090   -0.0640 O.co2  67  GLU67      -0.2457
     53  OE2       14.1030   32.1710    0.6220 O.co2  67  GLU67      -0.2457
     54  N         10.0220   24.8230   -7.9060 N.3    89  GLY89      -0.1210
     55  CA         9.1040   24.8830   -6.7960 C.3    89  GLY89       0.1956
     56  C          8.0530   23.7880   -6.8710 C.2    89  GLY89       0.2613
     57  O          8.1560   22.8720   -7.7060 O.2    89  GLY89      -0.2717
     58  N          7.0660   23.8410   -5.9710 N.am   90  THR90      -0.1938
     59  CA         5.9860   22.8670   -6.0700 C.3    90  THR90       0.2028
     60  C          4.9380   23.5090   -6.9470 C.2    90  THR90       0.2638
     61  O          4.4270   22.8510   -7.8590 O.2    90  THR90      -0.2714
     62  CB         5.5030   22.1970   -4.7250 C.3    90  THR90       0.1808
     63  OG1        5.8500   23.0270   -3.6040 O.3    90  THR90      -0.2208
     64  CG2        6.1450   20.7180   -4.5670 C.3    90  THR90       0.0379
     65  N          4.6780   24.8010   -6.7460 N.am   91  ALA91      -0.2030
     66  CA         4.1060   25.5980   -7.8340 C.3    91  ALA91       0.1283
     67  C          5.1010   26.7160   -8.2920 C.3    91  ALA91       0.2036
     68  O          5.9010   27.3120   -7.4780 O.3    91  ALA91      -0.2185
     69  CB         2.7180   26.1500   -7.4780 C.3    91  ALA91       0.0262
@<TRIPOS>BOND
     1    33    31   ar
     2    21    20    2
     3    67    66    1
     4    67    68    1
     5    18    19    1
     6    54    55    1
     7    61    60    2
     8    66    69    1
     9    66    65    1
    10    57    56    2
    11    31    32   ar
    12    31    30    1
    13    20    19    1
    14    20    22   am
    15    23    24    1
    16    23    22    1
    17    60    65   am
    18    60    59    1
    19    56    55    1
    20    56    58   am
    21    24    25    2
    22    24    26   am
    23    26    27    1
    24    30    27    1
    25    27    28    1
    26    59    58    1
    27    59    62    1
    28    29    28    2
    29    28    34   am
    30    40    41    2
    31    40    39    1
    32    44    42    1
    33    42    39    1
    34    42    43    1
    35    62    64    1
    36    62    63    1
    37     1     2    1
    38    39    38    1
    39    34    35    1
    40    38    36   am
    41     5     2    1
    42     5     6    1
    43    47    48    2
    44    47    46    1
    45    45    46    1
    46    36    35    1
    47    36    37    2
    48     4     3    2
    49     2     3    1
    50    46    49    1
    51    12    11    2
    52    11    10    1
    53     6     8   am
    54     6     7    2
    55    49    50    1
    56    10    13    1
    57    10     9    1
    58    13    14    1
    59    50    51    1
    60    16    15    1
    61    16    17    1
    62    51    52   ar
    63    51    53   ar
    64    14    15    1
