@<TRIPOS>MOLECULE
tmp/2jgvD00.pdb
 147 136 0 0 0
SMALL
GASTEIGER

@<TRIPOS>ATOM
      1  N         65.4820   35.7880   14.2210 N.3    99  GLN99      -0.1245
      2  CA        66.8730   36.1540   14.0330 C.3    99  GLN99       0.1566
      3  C         66.9290   37.6510   14.2840 C.2    99  GLN99       0.2260
      4  O         66.5900   38.4580   13.4170 O.2    99  GLN99      -0.2867
      5  CB        67.3070   35.7920   12.6140 C.3    99  GLN99       0.0367
      6  CG        68.7750   36.0000   12.2790 C.3    99  GLN99       0.0905
      7  CD        69.0670   35.6440   10.8140 C.2    99  GLN99       0.2608
      8  OE1       68.9570   34.4770   10.4090 O.2    99  GLN99      -0.2717
      9  NE2       69.4290   36.6510   10.0160 N.am   99  GLN99      -0.0878
     10  N         75.2580   41.3940   -6.3620 N.3   183  LYS183     -0.1245
     11  CA        74.3980   40.3610   -5.7890 C.3   183  LYS183      0.1561
     12  C         73.3090   40.9000   -4.8520 C.2   183  LYS183      0.2260
     13  O         73.3450   40.6420   -3.6540 O.2   183  LYS183     -0.2867
     14  CB        75.2600   39.3310   -5.0450 C.3   183  LYS183      0.0271
     15  CG        74.7140   37.9180   -5.1170 C.3   183  LYS183      0.0035
     16  CD        75.2040   37.0390   -3.9650 C.3   183  LYS183      0.0206
     17  CE        74.3890   37.2500   -2.6840 C.3   183  LYS183      0.1093
     18  NZ        74.7990   38.4730   -1.9370 N.3   183  LYS183     -0.1314
     19  N         69.5950   40.7200   -3.2910 N.3   185  ASN185     -0.1240
     20  CA        68.4330   39.8310   -3.2250 C.3   185  ASN185      0.1653
     21  C         67.2270   40.5210   -3.8560 C.2   185  ASN185      0.2266
     22  O         67.3010   41.7070   -4.2010 O.2   185  ASN185     -0.2867
     23  CB        68.1450   39.3490   -1.7910 C.3   185  ASN185      0.1155
     24  CG        67.8330   40.4820   -0.8340 C.2   185  ASN185      0.2627
     25  OD1       66.9540   41.3000   -1.0890 O.2   185  ASN185     -0.2716
     26  ND2       68.5490   40.5240    0.2870 N.am  185  ASN185     -0.0877
     27  N         69.6520   36.8220   -5.2960 N.3   222  SER222     -0.1217
     28  CA        69.3270   35.8730   -4.2450 C.3   222  SER222      0.1889
     29  C         67.8180   35.7880   -4.0060 C.2   222  SER222      0.2288
     30  O         67.1480   36.7980   -3.7450 O.2   222  SER222     -0.2866
     31  CB        70.0770   36.2460   -2.9580 C.3   222  SER222      0.2089
     32  OG        70.4960   37.6090   -2.9770 O.3   222  SER222     -0.2183
     33  N         66.8540   33.4360   -1.7950 N.3   224  GLY224     -0.1210
     34  CA        66.9290   32.6600   -0.5600 C.3   224  GLY224      0.1956
     35  C         66.7250   31.1710   -0.7670 C.2   224  GLY224      0.2611
     36  O         67.5050   30.5120   -1.4630 O.2   224  GLY224     -0.2717
     37  N         65.6600   30.6520   -0.1600 N.am  225  ALA225     -0.1979
     38  CA        65.3340   29.2300   -0.2090 C.3   225  ALA225      0.1597
     39  C         64.7150   28.8090   -1.5480 C.2   225  ALA225      0.2287
     40  O         64.7620   27.6320   -1.9190 O.2   225  ALA225     -0.2864
     41  CB        64.4110   28.8590    0.9530 C.3   225  ALA225      0.0319
     42  N         65.8310   29.7920   -4.3490 N.3   227  GLY227     -0.1210
     43  CA        66.9600   29.6760   -5.2700 C.3   227  GLY227      0.1956
     44  C         67.6180   30.9950   -5.6380 C.2   227  GLY227      0.2611
     45  O         68.0110   31.7710   -4.7630 O.2   227  GLY227     -0.2717
     46  N         67.7420   31.2330   -6.9430 N.am  228  ALA228     -0.1979
     47  CA        68.3880   32.4360   -7.4690 C.3   228  ALA228      0.1597
     48  C         68.0030   32.6970   -8.9230 C.2   228  ALA228      0.2287
     49  O         67.6770   31.7710   -9.6740 O.2   228  ALA228     -0.2864
     50  CB        69.9140   32.3360   -7.3370 C.3   228  ALA228      0.0319
     51  N         66.8550   25.1240   -6.5490 N.3   241  ILE241     -0.1231
     52  CA        67.5360   24.4390   -5.4590 C.3   241  ILE241      0.1678
     53  C         66.5660   23.5530   -4.6690 C.2   241  ILE241      0.2434
     54  O         65.3660   23.8200   -4.6440 O.2   241  ILE241     -0.2733
     55  CB        68.2540   25.4450   -4.5090 C.3   241  ILE241      0.0265
     56  CG1       67.2500   26.3270   -3.7570 C.3   241  ILE241      0.0019
     57  CG2       69.2490   26.3150   -5.2820 C.3   241  ILE241      0.0020
     58  CD1       67.9020   27.3110   -2.8080 C.3   241  ILE241      0.0001
     59  N         67.0860   22.4850   -4.0390 N.am  242  PRO242     -0.2718
     60  CA        66.2900   21.6100   -3.1730 C.3   242  PRO242      0.1535
     61  C         65.9330   22.2450   -1.8290 C.2   242  PRO242      0.2599
     62  O         66.5290   23.2500   -1.4310 O.2   242  PRO242     -0.2715
     63  CB        67.2260   20.4220   -2.9350 C.3   242  PRO242      0.0310
     64  CG        68.5850   20.9960   -3.0460 C.3   242  PRO242      0.0237
     65  CD        68.4880   22.0310   -4.1320 C.3   242  PRO242      0.0939
     66  N         64.9650   21.6490   -1.1380 N.am  243  THR243     -0.1937
     67  CA        64.6410   22.0270    0.2320 C.3   243  THR243      0.2028
     68  C         65.6230   21.3380    1.1770 C.2   243  THR243      0.2642
     69  O         65.9780   20.1750    0.9740 O.2   243  THR243     -0.2714
     70  CB        63.2080   21.6050    0.6000 C.3   243  THR243      0.1808
     71  OG1       62.3070   22.0090   -0.4400 O.3   243  THR243     -0.2208
     72  CG2       62.7770   22.2360    1.9220 C.3   243  THR243      0.0379
     73  N         66.0760   22.0660    2.1940 N.am  244  ILE244     -0.1977
     74  CA        66.9640   21.5060    3.2120 C.3   244  ILE244      0.1596
     75  C         66.5820   21.9940    4.6120 C.2   244  ILE244      0.2287
     76  O         65.7200   22.8660    4.7660 O.2   244  ILE244     -0.2864
     77  CB        68.4660   21.7850    2.9090 C.3   244  ILE244      0.0276
     78  CG1       68.6790   23.2170    2.4010 C.3   244  ILE244      0.0022
     79  CG2       69.0140   20.7730    1.9030 C.3   244  ILE244      0.0022
     80  CD1       69.1020   24.1970    3.4780 C.3   244  ILE244      0.0001
     81  N         67.4810   24.1420    7.4930 N.3   246  VAL246     -0.1245
     82  CA        68.3350   25.2830    7.8260 C.3   246  VAL246      0.1561
     83  C         68.5000   25.4830    9.3380 C.2   246  VAL246      0.2260
     84  O         67.5240   25.7250   10.0590 O.2   246  VAL246     -0.2867
     85  CB        67.8340   26.5920    7.1430 C.3   246  VAL246      0.0252
     86  CG1       66.3110   26.6790    7.1740 C.3   246  VAL246      0.0019
     87  CG2       68.4700   27.8270    7.7800 C.3   246  VAL246      0.0019
     88  N         71.0250   30.5500    8.8880 N.3   249  PRO249     -0.2102
     89  CA        71.1580   31.2020    7.5740 C.3   249  PRO249      0.1504
     90  C         72.0300   32.4720    7.5040 C.2   249  PRO249      0.2576
     91  O         72.2790   32.9690    6.4010 O.2   249  PRO249     -0.2718
     92  CB        69.7110   31.5510    7.2150 C.3   249  PRO249      0.0282
     93  CG        69.0360   31.7360    8.5290 C.3   249  PRO249      0.0208
     94  CD        69.7110   30.8140    9.5040 C.3   249  PRO249      0.0893
     95  N         72.4780   33.0070    8.6420 N.am  250  VAL250     -0.1966
     96  CA        73.3010   34.2180    8.6020 C.3   250  VAL250      0.1727
     97  C         74.7010   33.8990    8.0740 C.2   250  VAL250      0.2617
     98  O         75.2940   32.8740    8.4290 O.2   250  VAL250     -0.2715
     99  CB        73.3660   34.9840    9.9680 C.3   250  VAL250      0.0290
    100  CG1       72.1780   34.6340   10.8560 C.3   250  VAL250      0.0023
    101  CG2       74.6800   34.7360   10.6920 C.3   250  VAL250      0.0023
    102  N         75.2170   34.7750    7.2100 N.am  251  GLY251     -0.1940
    103  CA        76.5130   34.5440    6.5770 C.3   251  GLY251      0.2014
    104  C         76.4210   33.7180    5.3020 C.2   251  GLY251      0.2640
    105  O         77.4530   33.3630    4.7200 O.2   251  GLY251     -0.2714
    106  N         75.1970   33.4060    4.8680 N.am  252  SER252     -0.1935
    107  CA        75.0050   32.5450    3.7040 C.3   252  SER252      0.2055
    108  C         75.1750   33.3220    2.4020 C.2   252  SER252      0.2644
    109  O         75.6650   32.7740    1.4050 O.2   252  SER252     -0.2714
    110  CB        73.6560   31.8210    3.7570 C.3   252  SER252      0.2130
    111  OG        72.5750   32.7220    3.6420 O.3   252  SER252     -0.2179
    112  N         74.7810   34.5960    2.4110 N.am  253  GLY253     -0.1939
    113  CA        75.0650   35.5030    1.2930 C.3   253  GLY253      0.2014
    114  C         76.5640   35.6400    1.1160 C.2   253  GLY253      0.2638
    115  O         77.0700   35.6720   -0.0100 O.2   253  GLY253     -0.2714
    116  N         77.2850   35.7000    2.2320 N.am  254  ASP254     -0.1971
    117  CA        78.7410   35.7430    2.1960 C.3   254  ASP254      0.1709
    118  C         79.3360   34.4260    1.6940 C.2   254  ASP254      0.2293
    119  O         80.3410   34.4310    0.9780 O.2   254  ASP254     -0.2864
    120  CB        79.3180   36.0970    3.5720 C.3   254  ASP254      0.1436
    121  CG        78.7240   37.3780    4.1410 C.2   254  ASP254      0.3671
    122  OD1       78.3240   38.2570    3.3520 O.co2 254  ASP254     -0.2456
    123  OD2       78.6410   37.5040    5.3830 O.co2 254  ASP254     -0.2456
    124  N         77.9490   32.4460   -0.3860 N.3   256  THR256     -0.1218
    125  CA        77.6370   32.5940   -1.8150 C.3   256  THR256      0.1862
    126  C         78.7170   33.4170   -2.5190 C.2   256  THR256      0.2287
    127  O         79.1810   33.0500   -3.5930 O.2   256  THR256     -0.2866
    128  CB        76.2440   33.2480   -1.9810 C.3   256  THR256      0.1770
    129  OG1       75.2390   32.3470   -1.4930 O.3   256  THR256     -0.2211
    130  CG2       75.9360   33.6030   -3.4390 C.3   256  THR256      0.0375
    131  N         75.4340   28.7510   -4.8490 N.3   278  ASN278     -0.1240
    132  CA        74.2480   28.3560   -4.0920 C.3   278  ASN278      0.1653
    133  C         74.5350   27.1800   -3.1710 C.2   278  ASN278      0.2266
    134  O         73.8900   27.0320   -2.1350 O.2   278  ASN278     -0.2867
    135  CB        73.0790   28.0160   -5.0200 C.3   278  ASN278      0.1155
    136  CG        72.3500   29.2500   -5.5290 C.2   278  ASN278      0.2627
    137  OD1       71.3350   29.6610   -4.9600 O.2   278  ASN278     -0.2716
    138  ND2       72.8640   29.8510   -6.6130 N.am  278  ASN278     -0.0877
    139  N         76.2070   28.5590   -0.1160 N.3   281  GLY281     -0.1225
    140  CA        75.1630   29.3010    0.5880 C.3   281  GLY281      0.1811
    141  C         74.2570   28.3770    1.3900 C.2   281  GLY281      0.2280
    142  O         73.7970   28.7300    2.4850 O.2   281  GLY281     -0.2866
    143  N         73.9060   27.6860    5.7880 N.3   284  ALA284     -0.1245
    144  CA        72.6130   27.7650    6.4470 C.3   284  ALA284      0.1562
    145  C         72.3340   26.4950    7.2510 C.2   284  ALA284      0.2260
    146  O         71.5050   26.5020    8.1550 O.2   284  ALA284     -0.2867
    147  CB        71.5170   28.0140    5.4330 C.3   284  ALA284      0.0290
@<TRIPOS>BOND
     1    49    48    2
     2    48    47    1
     3    47    50    1
     4    47    46    1
     5    46    44   am
     6   138   136   am
     7    51    52    1
     8    10    11    1
     9    11    14    1
    10    11    12    1
    11    44    43    1
    12    44    45    2
    13   136   135    1
    14   136   137    2
    15    52    53    1
    16    52    55    1
    17    27    28    1
    18    57    55    1
    19    43    42    1
    20    15    14    1
    21    15    16    1
    22   135   132    1
    23    12    13    2
    24   131   132    1
    25    53    54    2
    26    53    59   am
    27    55    56    1
    28    28    29    1
    29    28    31    1
    30    22    21    2
    31    65    59    1
    32    65    64    1
    33   132   133    1
    34    59    60    1
    35    29    30    2
    36    16    17    1
    37    21    20    1
    38    56    58    1
    39   127   126    2
    40   130   128    1
    41    19    20    1
    42    20    23    1
    43    60    63    1
    44    60    61    1
    45   133   134    2
    46    64    63    1
    47    32    31    1
    48    17    18    1
    49   126   125    1
    50   128   125    1
    51   128   129    1
    52    40    39    2
    53    61    62    2
    54    61    66   am
    55   125   124    1
    56    33    34    1
    57    23    24    1
    58    39    38    1
    59    36    35    2
    60    66    67    1
    61    25    24    2
    62    24    26   am
    63    35    34    1
    64    35    37   am
    65    71    70    1
    66    38    37    1
    67    38    41    1
    68   139   140    1
    69   115   114    2
    70    67    70    1
    71    67    68    1
    72   140   141    1
    73    70    72    1
    74    69    68    2
    75   119   118    2
    76   114   113    1
    77   114   116   am
    78    68    73   am
    79   113   112    1
    80   141   142    2
    81   109   108    2
    82   118   117    1
    83    79    77    1
    84    73    74    1
    85   117   116    1
    86   117   120    1
    87    78    77    1
    88    78    80    1
    89   108   112   am
    90   108   107    1
    91    77    74    1
    92    74    75    1
    93   122   121   ar
    94   120   121    1
    95   111   110    1
    96   107   110    1
    97   107   106    1
    98   121   123   ar
    99    75    76    2
   100   105   104    2
   101   106   104   am
   102   104   103    1
   103   147   144    1
   104   143   144    1
   105    91    90    2
   106   144   145    1
   107   103   102    1
   108    85    86    1
   109    85    87    1
   110    85    82    1
   111   102    97   am
   112    92    89    1
   113    92    93    1
   114   145   146    2
   115    81    82    1
   116    90    89    1
   117    90    95   am
   118    89    88    1
   119    82    83    1
   120    97    98    2
   121    97    96    1
   122    93    94    1
   123    96    95    1
   124    96    99    1
   125    88    94    1
   126    83    84    2
   127    99   101    1
   128    99   100    1
   129     9     7   am
   130     8     7    2
   131     7     6    1
   132     6     5    1
   133     5     2    1
   134     4     3    2
   135     2     1    1
   136     2     3    1
