@<TRIPOS>MOLECULE
tmp/2jh0B01.pdb
 181 179 0 0 0
SMALL
GASTEIGER

@<TRIPOS>ATOM
      1  N         -0.2960   26.8000   52.6210 N.3    43  HIS43      -0.1241
      2  CA        -0.1250   25.4350   53.1060 C.3    43  HIS43       0.1621
      3  C          0.6200   25.3640   54.4550 C.2    43  HIS43       0.2264
      4  O          0.5920   24.3320   55.1310 O.2    43  HIS43      -0.2867
      5  CB         0.5450   24.5170   52.0820 C.3    43  HIS43       0.0745
      6  CG         2.0300   24.6540   52.0340 C.ar   43  HIS43       0.0817
      7  ND1        2.6840   25.2940   51.0050 N.ar   43  HIS43      -0.2268
      8  CD2        2.9910   24.2240   52.8900 C.ar   43  HIS43       0.1154
      9  CE1        3.9870   25.2710   51.2400 C.ar   43  HIS43       0.1986
     10  NE2        4.1990   24.6340   52.3820 N.ar   43  HIS43      -0.2212
     11  N         -3.6690   22.8260   55.7350 N.3    47  TYR47      -0.1241
     12  CA        -3.4810   21.6850   54.8410 C.3    47  TYR47       0.1605
     13  C         -4.2130   20.4610   55.3900 C.2    47  TYR47       0.2264
     14  O         -3.5900   19.5580   55.9810 O.2    47  TYR47      -0.2867
     15  CB        -2.0110   21.3760   54.5420 C.3    47  TYR47       0.0534
     16  CG        -1.8900   20.4240   53.3770 C.ar   47  TYR47      -0.0201
     17  CD1       -2.3320   20.8010   52.1000 C.ar   47  TYR47      -0.0009
     18  CD2       -1.3530   19.1510   53.5400 C.ar   47  TYR47      -0.0009
     19  CE1       -2.2540   19.9110   51.0210 C.ar   47  TYR47       0.0417
     20  CE2       -1.2550   18.2670   52.4650 C.ar   47  TYR47       0.0417
     21  CZ        -1.7150   18.6530   51.2090 C.ar   47  TYR47       0.1957
     22  OH        -1.6280   17.7680   50.1480 O.3    47  TYR47      -0.2866
     23  N         -3.0930   16.6680   55.7690 N.3    50  TRP50      -0.1241
     24  CA        -2.1720   16.3100   56.8510 C.3    50  TRP50       0.1605
     25  C         -2.6510   16.7950   58.2100 C.2    50  TRP50       0.2264
     26  O         -1.8440   16.9130   59.1590 O.2    50  TRP50      -0.2867
     27  CB        -0.7590   16.8520   56.5930 C.3    50  TRP50       0.0550
     28  CG        -0.0630   16.3260   55.3720 C.ar   50  TRP50       0.0003
     29  CD1       -0.4120   15.2360   54.6150 C.ar   50  TRP50       0.0946
     30  CD2        1.1840   16.7940   54.8440 C.ar   50  TRP50       0.0152
     31  NE1        0.5110   15.0410   53.6070 N.ar   50  TRP50      -0.2442
     32  CE2        1.5030   15.9790   53.7290 C.ar   50  TRP50       0.0810
     33  CE3        2.0530   17.8400   55.1880 C.ar   50  TRP50       0.0012
     34  CZ2        2.6520   16.1820   52.9530 C.ar   50  TRP50       0.0191
     35  CZ3        3.1990   18.0400   54.4110 C.ar   50  TRP50       0.0001
     36  CH2        3.4840   17.2140   53.3100 C.ar   50  TRP50       0.0015
     37  N         -3.6680   19.7590   59.1750 N.3    52  LYS52      -0.1245
     38  CA        -3.0630   21.0380   59.5580 C.3    52  LYS52       0.1561
     39  C         -4.0760   22.1440   59.3470 C.2    52  LYS52       0.2260
     40  O         -4.5940   22.3200   58.2350 O.2    52  LYS52      -0.2867
     41  CB        -1.8060   21.3130   58.7320 C.3    52  LYS52       0.0271
     42  CG        -1.1610   22.6700   59.0150 C.3    52  LYS52       0.0035
     43  CD         0.1240   22.8600   58.1890 C.3    52  LYS52       0.0206
     44  CE         1.1930   21.8420   58.5660 C.3    52  LYS52       0.1093
     45  NZ         2.3750   21.8640   57.6490 N.3    52  LYS52      -0.1314
     46  N         -2.0990   22.9080   45.1910 N.3    96  LEU96      -0.1245
     47  CA        -1.6070   24.1050   45.9220 C.3    96  LEU96       0.1561
     48  C         -1.6590   25.4010   45.0900 C.2    96  LEU96       0.2260
     49  O         -0.8900   26.3580   45.3220 O.2    96  LEU96      -0.2867
     50  CB        -0.2070   23.8910   46.5210 C.3    96  LEU96       0.0270
     51  CG         0.0240   22.6150   47.3360 C.3    96  LEU96       0.0019
     52  CD1        1.4510   22.6070   47.9210 C.3    96  LEU96       0.0001
     53  CD2       -1.0060   22.4890   48.4450 C.3    96  LEU96       0.0001
     54  N         17.3690   16.1510   51.3720 N.3   146  GLU146     -0.1245
     55  CA        16.0570   15.5140   51.3080 C.3   146  GLU146      0.1567
     56  C         15.9100   14.4040   52.3590 C.2   146  GLU146      0.2260
     57  O         14.8640   14.2910   53.0080 O.2   146  GLU146     -0.2867
     58  CB        15.7850   14.9720   49.9050 C.3   146  GLU146      0.0388
     59  CG        14.3820   14.4160   49.7450 C.3   146  GLU146      0.1160
     60  CD        14.1060   13.8760   48.3580 C.2   146  GLU146      0.3649
     61  OE1       14.6850   14.3800   47.3710 O.co2 146  GLU146     -0.2457
     62  OE2       13.2690   12.9510   48.2570 O.co2 146  GLU146     -0.2457
     63  N          2.2090   16.9360   38.0400 N.3   172  ILE172     -0.1245
     64  CA         1.2890   17.8890   38.6650 C.3   172  ILE172      0.1561
     65  C          0.8620   18.9650   37.6610 C.2   172  ILE172      0.2260
     66  O          1.6770   19.4330   36.8450 O.2   172  ILE172     -0.2867
     67  CB         1.9560   18.5290   39.9430 C.3   172  ILE172      0.0252
     68  CG1        2.4060   17.4480   40.9320 C.3   172  ILE172      0.0019
     69  CG2        1.0370   19.5690   40.6340 C.3   172  ILE172      0.0019
     70  CD1        1.2890   16.6180   41.4970 C.3   172  ILE172      0.0001
     71  N         18.3840   24.0610   45.9710 N.3   192  ASP192     -0.1225
     72  CA        16.9290   24.0210   46.0410 C.3   192  ASP192      0.1805
     73  C         16.5090   24.3320   47.4570 C.2   192  ASP192      0.2598
     74  O         17.3320   24.3250   48.3830 O.2   192  ASP192     -0.2718
     75  CB        16.4580   22.5870   45.7330 C.3   192  ASP192      0.1424
     76  CG        14.9840   22.4930   45.3470 C.2   192  ASP192      0.3668
     77  OD1       14.5170   21.3430   45.1220 O.co2 192  ASP192     -0.2456
     78  OD2       14.3020   23.5290   45.2230 O.co2 192  ASP192     -0.2456
     79  N         15.2220   24.6320   47.6190 N.am  193  ALA193     -0.1966
     80  CA        14.6130   24.7240   48.9240 C.3   193  ALA193      0.1728
     81  C         14.2920   23.2940   49.3540 C.2   193  ALA193      0.2616
     82  O         14.3820   22.3710   48.5480 O.2   193  ALA193     -0.2715
     83  CB        13.3150   25.5340   48.8500 C.3   193  ALA193      0.0334
     84  N         13.9040   23.1320   50.6110 N.am  194  CYS194     -0.1954
     85  CA        13.5360   21.8140   51.1270 C.3   194  CYS194      0.1843
     86  C         12.5790   21.9780   52.3060 C.2   194  CYS194      0.2625
     87  O         12.2080   23.1070   52.6620 O.2   194  CYS194     -0.2714
     88  CB        14.7990   21.0440   51.5120 C.3   194  CYS194      0.0997
     89  SG        14.5560   19.2090   51.6040 S.3   194  CYS194     -0.0797
     90  N         12.1660   20.8640   52.9170 N.am  195  GLU195     -0.1977
     91  CA        11.2230   20.9180   54.0420 C.3   195  GLU195      0.1602
     92  C         11.6700   21.9440   55.0810 C.2   195  GLU195      0.2287
     93  O         12.8320   21.9310   55.5010 O.2   195  GLU195     -0.2864
     94  CB        11.0810   19.5390   54.6930 C.3   195  GLU195      0.0415
     95  CG         9.9450   19.4610   55.7150 C.3   195  GLU195      0.1163
     96  CD         9.8030   18.0730   56.3210 C.2   195  GLU195      0.3649
     97  OE1        9.7360   17.0880   55.5540 O.co2 195  GLU195     -0.2457
     98  OE2        9.7480   17.9740   57.5620 O.co2 195  GLU195     -0.2457
     99  N          9.5430   26.1730   53.0890 N.3   198  SER198     -0.1217
    100  CA         8.3110   26.6270   52.4490 C.3   198  SER198      0.1889
    101  C          7.7040   27.8010   53.2120 C.2   198  SER198      0.2288
    102  O          7.8960   27.9390   54.4360 O.2   198  SER198     -0.2866
    103  CB         7.3230   25.4710   52.2130 C.3   198  SER198      0.2089
    104  OG         6.7370   25.0750   53.4280 O.3   198  SER198     -0.2183
    105  N          8.1670   30.2360   48.4710 N.3   218  VAL218     -0.1231
    106  CA         8.5220   28.7990   48.4020 C.3   218  VAL218      0.1692
    107  C          7.2380   27.9810   48.6040 C.2   218  VAL218      0.2593
    108  O          6.6560   28.0050   49.6910 O.2   218  VAL218     -0.2718
    109  CB         9.5510   28.4310   49.4830 C.3   218  VAL218      0.0266
    110  CG1        9.9460   26.9700   49.3380 C.3   218  VAL218      0.0020
    111  CG2       10.7870   29.3070   49.3480 C.3   218  VAL218      0.0020
    112  N          6.8120   27.2600   47.5600 N.am  219  SER219     -0.1938
    113  CA         5.5270   26.5480   47.6120 C.3   219  SER219      0.2055
    114  C          5.6270   25.0250   47.6800 C.2   219  SER219      0.2643
    115  O          5.1590   24.4270   48.6580 O.2   219  SER219     -0.2714
    116  CB         4.5950   27.0050   46.4650 C.3   219  SER219      0.2130
    117  OG         3.3310   26.3790   46.5370 O.3   219  SER219     -0.2179
    118  N          6.2230   24.3930   46.6730 N.am  220  TRP220     -0.1959
    119  CA         6.3040   22.9280   46.6810 C.3   220  TRP220      0.1771
    120  C          7.3890   22.3750   45.7920 C.2   220  TRP220      0.2620
    121  O          7.8770   23.0460   44.8690 O.2   220  TRP220     -0.2715
    122  CB         4.9370   22.3130   46.3020 C.3   220  TRP220      0.0590
    123  CG         4.4460   22.6560   44.9280 C.ar  220  TRP220      0.0006
    124  CD1        3.7180   23.7580   44.5670 C.ar  220  TRP220      0.0946
    125  CD2        4.6090   21.8810   43.7340 C.ar  220  TRP220      0.0152
    126  NE1        3.4170   23.7100   43.2290 N.ar  220  TRP220     -0.2442
    127  CE2        3.9540   22.5720   42.6920 C.ar  220  TRP220      0.0810
    128  CE3        5.2450   20.6690   43.4420 C.ar  220  TRP220      0.0012
    129  CZ2        3.9270   22.0960   41.3650 C.ar  220  TRP220      0.0191
    130  CZ3        5.2240   20.2030   42.1260 C.ar  220  TRP220      0.0001
    131  CH2        4.5710   20.9150   41.1070 C.ar  220  TRP220      0.0015
    132  N          7.7580   21.1280   46.0830 N.am  221  GLY221     -0.1940
    133  CA         8.7390   20.4170   45.2720 C.3   221  GLY221      0.2014
    134  C          8.4780   18.9420   45.4660 C.2   221  GLY221      0.2639
    135  O          7.8010   18.5480   46.4090 O.2   221  GLY221     -0.2714
    136  N          8.9920   18.1460   44.5460 N.am  222  GLU222     -0.1963
    137  CA         8.9210   16.6920   44.6550 C.3   222  GLU222      0.1733
    138  C         10.3420   16.2860   45.0440 C.2   222  GLU222      0.2617
    139  O         11.2220   16.1400   44.2110 O.2   222  GLU222     -0.2715
    140  CB         8.4410   16.1260   43.3270 C.3   222  GLU222      0.0429
    141  CG         6.9520   16.3890   43.1120 C.3   222  GLU222      0.1163
    142  CD         6.4850   16.0810   41.6990 C.2   222  GLU222      0.3649
    143  OE1        6.9530   16.7470   40.7580 O.co2 222  GLU222     -0.2457
    144  OE2        5.6190   15.1910   41.5530 O.co2 222  GLU222     -0.2457
    145  N         10.5650   16.1870   46.3440 N.am  223  GLY223     -0.1940
    146  CA        11.9040   15.9450   46.8570 C.3   223  GLY223      0.2014
    147  C         12.6340   17.2810   46.8840 C.2   223  GLY223      0.2639
    148  O         12.0180   18.3370   46.6980 O.2   223  GLY223     -0.2714
    149  N         13.9390   17.2410   47.1300 N.am  224  CYS224     -0.1967
    150  CA        14.7460   18.4570   47.2000 C.3   224  CYS224      0.1712
    151  C         16.0260   18.2610   46.3950 C.2   224  CYS224      0.2296
    152  O         16.7630   17.2810   46.6090 O.2   224  CYS224     -0.2864
    153  CB        15.1040   18.7730   48.6580 C.3   224  CYS224      0.0983
    154  SG        13.7360   18.7360   49.7930 S.3   224  CYS224     -0.0798
    155  N         12.0030   23.4660   41.9510 N.3   231  GLY231     -0.1210
    156  CA        11.1550   23.9710   43.0160 C.3   231  GLY231      0.1956
    157  C         10.1050   24.8790   42.3990 C.2   231  GLY231      0.2612
    158  O         10.3690   25.5630   41.4000 O.2   231  GLY231     -0.2717
    159  N          8.9180   24.8710   42.9990 N.am  232  PHE232     -0.1962
    160  CA         7.7960   25.6700   42.5290 C.3   232  PHE232      0.1771
    161  C          7.4510   26.7220   43.5460 C.2   232  PHE232      0.2619
    162  O          7.4390   26.4470   44.7620 O.2   232  PHE232     -0.2715
    163  CB         6.5800   24.7860   42.2060 C.3   232  PHE232      0.0574
    164  CG         6.7160   24.0760   40.9020 C.ar  232  PHE232     -0.0200
    165  CD1        7.5260   22.9400   40.7790 C.ar  232  PHE232     -0.0042
    166  CD2        6.0870   24.5850   39.7800 C.ar  232  PHE232     -0.0042
    167  CE1        7.6750   22.2940   39.5350 C.ar  232  PHE232     -0.0003
    168  CE2        6.2210   23.9600   38.5340 C.ar  232  PHE232     -0.0003
    169  CZ         7.0140   22.8210   38.4200 C.ar  232  PHE232     -0.0000
    170  N          7.1510   27.9130   43.0180 N.am  233  TYR233     -0.1974
    171  CA         6.9240   29.1130   43.8110 C.3   233  TYR233      0.1639
    172  C          5.6230   29.7950   43.4720 C.2   233  TYR233      0.2290
    173  O          5.2440   29.8990   42.3050 O.2   233  TYR233     -0.2864
    174  CB         8.0800   30.0970   43.5620 C.3   233  TYR233      0.0560
    175  CG         9.4250   29.4830   43.9080 C.ar  233  TYR233     -0.0198
    176  CD1       10.1150   28.6660   42.9920 C.ar  233  TYR233     -0.0009
    177  CD2        9.9910   29.6900   45.1710 C.ar  233  TYR233     -0.0009
    178  CE1       11.3200   28.0640   43.3530 C.ar  233  TYR233      0.0417
    179  CE2       11.2010   29.1220   45.5170 C.ar  233  TYR233      0.0417
    180  CZ        11.8540   28.2920   44.6170 C.ar  233  TYR233      0.1957
    181  OH        13.0680   27.7130   44.9770 O.3   233  TYR233     -0.2866
@<TRIPOS>BOND
     1    66    65    2
     2    65    64    1
     3    63    64    1
     4   169   168   ar
     5   169   167   ar
     6   168   166   ar
     7    64    67    1
     8   167   165   ar
     9   166   164   ar
    10    67    69    1
    11    67    68    1
    12   143   142   ar
    13   165   164   ar
    14   164   163    1
    15    68    70    1
    16   131   129   ar
    17   131   130   ar
    18   129   127   ar
    19   158   157    2
    20   144   142   ar
    21   142   141    1
    22   155   156    1
    23   130   128   ar
    24   163   160    1
    25   173   172    2
    26   157   159   am
    27   157   156    1
    28   160   159    1
    29   160   161    1
    30   127   126   ar
    31   127   125   ar
    32   176   178   ar
    33   176   175   ar
    34   170   161   am
    35   170   171    1
    36   141   140    1
    37   126   124   ar
    38   140   137    1
    39   178   180   ar
    40   128   125   ar
    41   172   171    1
    42   161   162    2
    43   174   171    1
    44   174   175    1
    45   125   123   ar
    46   175   177   ar
    47   139   138    2
    48   136   137    1
    49   136   134   am
    50   124   123   ar
    51   180   181    1
    52   180   179   ar
    53   137   138    1
    54   121   120    2
    55   123   122    1
    56   138   145   am
    57    48    49    2
    58    48    47    1
    59    77    76   ar
    60   177   179   ar
    61    46    47    1
    62    78    76   ar
    63   133   134    1
    64   133   132    1
    65    76    75    1
    66   134   135    2
    67    75    72    1
    68   120   132   am
    69   120   119    1
    70    47    50    1
    71    71    72    1
    72    72    73    1
    73   122   119    1
    74   145   146    1
    75   151   152    2
    76   151   150    1
    77   116   117    1
    78   116   113    1
    79    50    51    1
    80   118   119    1
    81   118   114   am
    82   148   147    2
    83   146   147    1
    84   147   149   am
    85   149   150    1
    86   150   153    1
    87    51    52    1
    88    51    53    1
    89    61    60   ar
    90    73    79   am
    91    73    74    2
    92   112   113    1
    93   112   107   am
    94   113   114    1
    95    79    80    1
    96   114   115    2
    97    62    60   ar
    98    60    59    1
    99   106   105    1
   100   106   107    1
   101   106   109    1
   102    82    81    2
   103   107   108    2
   104   153   154    1
   105    83    80    1
   106    80    81    1
   107   110   109    1
   108   111   109    1
   109    81    84   am
   110    59    58    1
   111   154    89    1
   112    58    55    1
   113    22    21    1
   114    84    85    1
   115     7     9   ar
   116     7     6   ar
   117    19    21   ar
   118    19    17   ar
   119    85    88    1
   120    85    86    1
   121    21    20   ar
   122     9    10   ar
   123    55    54    1
   124    55    56    1
   125    88    89    1
   126     6     5    1
   127     6     8   ar
   128     5     2    1
   129    17    16   ar
   130   103   100    1
   131   103   104    1
   132    86    87    2
   133    86    90   am
   134    56    57    2
   135    10     8   ar
   136   100    99    1
   137   100   101    1
   138    20    18   ar
   139     1     2    1
   140    90    91    1
   141    34    36   ar
   142    34    32   ar
   143     2     3    1
   144   101   102    2
   145    36    35   ar
   146    16    18   ar
   147    16    15    1
   148    31    32   ar
   149    31    29   ar
   150    32    30   ar
   151    91    94    1
   152    91    92    1
   153    35    33   ar
   154     3     4    2
   155    15    12    1
   156    29    28   ar
   157    94    95    1
   158    12    13    1
   159    12    11    1
   160    30    33   ar
   161    30    28   ar
   162    92    93    2
   163    28    27    1
   164    13    14    2
   165    97    96   ar
   166    95    96    1
   167    23    24    1
   168    96    98   ar
   169    27    24    1
   170    24    25    1
   171    45    44    1
   172    43    44    1
   173    43    42    1
   174    25    26    2
   175    40    39    2
   176    41    42    1
   177    41    38    1
   178    37    38    1
   179    39    38    1
