@<TRIPOS>MOLECULE
tmp/2jh7A00.pdb
 100 100 0 0 0
SMALL
GASTEIGER

@<TRIPOS>ATOM
      1  N         -3.1530   18.4840   52.1890 N.3   127  LYS127     -0.1231
      2  CA        -2.9670   19.7890   51.5470 C.3   127  LYS127      0.1693
      3  C         -1.9300   19.7980   50.3940 C.2   127  LYS127      0.2592
      4  O         -2.1310   20.5030   49.3640 O.2   127  LYS127     -0.2718
      5  CB        -2.6460   20.8290   52.5930 C.3   127  LYS127      0.0285
      6  CG        -2.7560   22.2520   52.0840 C.3   127  LYS127      0.0035
      7  CD        -2.4410   23.2780   53.1670 C.3   127  LYS127      0.0206
      8  CE        -2.7610   24.6720   52.6050 C.3   127  LYS127      0.1093
      9  NZ        -2.3070   25.7470   53.4950 N.3   127  LYS127     -0.1314
     10  N         -0.8440   19.0120   50.5590 N.am  128  PHE128     -0.1976
     11  CA         0.2590   18.9280   49.5900 C.3   128  PHE128      0.1639
     12  C          0.6160   17.4540   49.4240 C.2   128  PHE128      0.2290
     13  O          1.4670   16.9310   50.1580 O.2   128  PHE128     -0.2864
     14  CB         1.4820   19.6900   50.0840 C.3   128  PHE128      0.0560
     15  CG         1.2210   21.1390   50.4280 C.ar  128  PHE128     -0.0200
     16  CD1        1.1510   22.1190   49.4080 C.ar  128  PHE128     -0.0042
     17  CD2        1.0630   21.5320   51.7600 C.ar  128  PHE128     -0.0042
     18  CE1        0.9360   23.4890   49.7210 C.ar  128  PHE128     -0.0003
     19  CE2        0.8500   22.8720   52.0860 C.ar  128  PHE128     -0.0003
     20  CZ         0.7820   23.8570   51.0610 C.ar  128  PHE128     -0.0000
     21  N         15.0080   26.8640   52.9540 N.3   139  PHE139     -0.1241
     22  CA        16.0330   27.1710   51.9330 C.3   139  PHE139      0.1605
     23  C         17.1460   28.1130   52.4040 C.2   139  PHE139      0.2264
     24  O         16.8470   29.1990   52.8120 O.2   139  PHE139     -0.2867
     25  CB        15.3680   27.7640   50.6690 C.3   139  PHE139      0.0534
     26  CG        16.3550   28.0720   49.5740 C.ar  139  PHE139     -0.0203
     27  CD1       16.8630   27.0450   48.7630 C.ar  139  PHE139     -0.0042
     28  CD2       16.8150   29.4100   49.3700 C.ar  139  PHE139     -0.0042
     29  CE1       17.7820   27.3240   47.7520 C.ar  139  PHE139     -0.0003
     30  CE2       17.7530   29.6970   48.3710 C.ar  139  PHE139     -0.0003
     31  CZ        18.2500   28.6530   47.5600 C.ar  139  PHE139     -0.0000
     32  N          6.8680   22.4700   58.8080 N.3   148  ARG148     -0.1245
     33  CA         6.6290   22.5510   57.3670 C.3   148  ARG148      0.1563
     34  C          6.2180   21.2110   56.8310 C.2   148  ARG148      0.2260
     35  O          6.5470   20.1640   57.4220 O.2   148  ARG148     -0.2867
     36  CB         7.8480   23.0950   56.5930 C.3   148  ARG148      0.0307
     37  CG         8.6580   24.1840   57.3390 C.3   148  ARG148      0.0489
     38  CD         9.9430   24.5190   56.6010 C.3   148  ARG148      0.2205
     39  NE        10.9910   25.0470   57.4740 N.pl3 148  ARG148     -0.0865
     40  CZ        11.2960   26.3480   57.6220 C.cat 148  ARG148      0.5346
     41  NH1       10.6350   27.3260   56.9650 N.pl3 148  ARG148      0.1354
     42  NH2       12.2980   26.6760   58.4020 N.pl3 148  ARG148      0.1354
     43  N         14.1840   23.8120   48.4120 N.3   186  LYS186     -0.1231
     44  CA        13.0090   24.6610   48.1660 C.3   186  LYS186      0.1693
     45  C         11.6870   23.9410   48.3650 C.2   186  LYS186      0.2592
     46  O         10.6370   24.5840   48.4510 O.2   186  LYS186     -0.2718
     47  CB        13.0360   25.2120   46.7120 C.3   186  LYS186      0.0285
     48  CG        14.0900   26.2300   46.4260 C.3   186  LYS186      0.0035
     49  CD        13.8190   27.5400   47.1380 C.3   186  LYS186      0.0206
     50  CE        12.5670   28.2380   46.6290 C.3   186  LYS186      0.1093
     51  NZ        12.5100   29.6240   47.1860 N.3   186  LYS186     -0.1314
     52  N         11.7460   22.6080   48.4480 N.am  187  ARG187     -0.1966
     53  CA        10.5730   21.7560   48.2850 C.3   187  ARG187      0.1729
     54  C          9.8320   21.4450   49.5980 C.2   187  ARG187      0.2616
     55  O          9.8590   20.3140   50.1380 O.2   187  ARG187     -0.2715
     56  CB        11.0270   20.4770   47.5650 C.3   187  ARG187      0.0348
     57  CG        11.4770   20.7630   46.1330 C.3   187  ARG187      0.0492
     58  CD        10.3020   20.4780   45.2790 C.3   187  ARG187      0.2205
     59  NE         9.9430   21.5350   44.3620 N.pl3 187  ARG187     -0.0865
     60  CZ         8.7040   21.7260   43.8890 C.cat 187  ARG187      0.5346
     61  NH1        7.6810   20.9540   44.2620 N.pl3 187  ARG187      0.1354
     62  NH2        8.4830   22.7240   43.0480 N.pl3 187  ARG187      0.1354
     63  N          9.1740   22.4800   50.1010 N.am  188  HIS188     -0.1959
     64  CA         8.4150   22.4390   51.3410 C.3   188  HIS188      0.1787
     65  C          7.4190   23.5830   51.3450 C.2   188  HIS188      0.2620
     66  O          7.5510   24.5170   50.5820 O.2   188  HIS188     -0.2715
     67  CB         9.3490   22.6080   52.5380 C.3   188  HIS188      0.0785
     68  CG        10.1640   23.8650   52.4930 C.ar  188  HIS188      0.0821
     69  ND1       11.4190   23.9180   51.9210 N.ar  188  HIS188     -0.2267
     70  CD2        9.9040   25.1160   52.9520 C.ar  188  HIS188      0.1154
     71  CE1       11.9060   25.1360   52.0450 C.ar  188  HIS188      0.1986
     72  NE2       11.0130   25.8820   52.6750 N.ar  188  HIS188     -0.2212
     73  N          6.4590   23.5010   52.2490 N.am  189  TYR189     -0.1960
     74  CA         5.4690   24.5050   52.4550 C.3   189  TYR189      0.1771
     75  C          5.4410   24.7420   53.9470 C.2   189  TYR189      0.2620
     76  O          5.0990   23.8430   54.7150 O.2   189  TYR189     -0.2715
     77  CB         4.1140   23.9510   51.9470 C.3   189  TYR189      0.0574
     78  CG         4.3030   23.4140   50.5490 C.ar  189  TYR189     -0.0198
     79  CD1        4.2410   24.2770   49.4400 C.ar  189  TYR189     -0.0009
     80  CD2        4.6080   22.0550   50.3240 C.ar  189  TYR189     -0.0009
     81  CE1        4.4730   23.8100   48.1280 C.ar  189  TYR189      0.0417
     82  CE2        4.8540   21.5840   49.0330 C.ar  189  TYR189      0.0417
     83  CZ         4.7850   22.4610   47.9420 C.ar  189  TYR189      0.1957
     84  OH         4.9930   21.9820   46.6750 O.3   189  TYR189     -0.2866
     85  N          5.8140   25.9380   54.3860 N.am  190  THR190     -0.1937
     86  CA         5.8000   26.2430   55.8100 C.3   190  THR190      0.2028
     87  C          4.3550   26.4290   56.2360 C.2   190  THR190      0.2642
     88  O          3.6230   27.1400   55.5750 O.2   190  THR190     -0.2714
     89  CB         6.6820   27.4430   56.1450 C.3   190  THR190      0.1808
     90  OG1        8.0400   27.2310   55.6720 O.3   190  THR190     -0.2208
     91  CG2        6.6580   27.6930   57.6700 C.3   190  THR190      0.0379
     92  N          3.9420   25.7780   57.3150 N.am  191  GLU191     -0.1976
     93  CA         2.5350   25.6360   57.6760 C.3   191  GLU191      0.1602
     94  C          2.4170   25.5720   59.1860 C.2   191  GLU191      0.2287
     95  O          1.8120   24.6710   59.7700 O.2   191  GLU191     -0.2864
     96  CB         1.9210   24.3590   57.0750 C.3   191  GLU191      0.0415
     97  CG         1.7440   24.3570   55.5320 C.3   191  GLU191      0.1163
     98  CD         0.6590   25.3230   55.0110 C.2   191  GLU191      0.3649
     99  OE1       -0.2410   25.7480   55.7910 O.co2 191  GLU191     -0.2457
    100  OE2        0.7270   25.6520   53.8090 O.co2 191  GLU191     -0.2457
@<TRIPOS>BOND
     1    62    60    1
     2    60    61    1
     3    60    59    2
     4    59    58    1
     5    58    57    1
     6    57    56    1
     7    48    47    1
     8    48    49    1
     9    50    49    1
    10    50    51    1
    11    84    83    1
    12    47    44    1
    13    31    29   ar
    14    31    30   ar
    15    56    53    1
    16    29    27   ar
    17    83    81   ar
    18    83    82   ar
    19    81    79   ar
    20    44    45    1
    21    44    43    1
    22    53    52    1
    23    53    54    1
    24    45    52   am
    25    45    46    2
    26    30    28   ar
    27    27    26   ar
    28    82    80   ar
    29     4     3    2
    30    28    26   ar
    31    16    18   ar
    32    16    15   ar
    33    12    11    1
    34    12    13    2
    35    79    78   ar
    36    26    25    1
    37    11    14    1
    38    11    10    1
    39    54    63   am
    40    54    55    2
    41    18    20   ar
    42    14    15    1
    43    63    64    1
    44    80    78   ar
    45     3    10   am
    46     3     2    1
    47    15    17   ar
    48    78    77    1
    49    66    65    2
    50    25    22    1
    51    20    19   ar
    52    64    65    1
    53    64    67    1
    54    65    73   am
    55     2     1    1
    56     2     5    1
    57    17    19   ar
    58    69    71   ar
    59    69    68   ar
    60    22    23    1
    61    22    21    1
    62    77    74    1
    63    71    72   ar
    64     6     5    1
    65     6     7    1
    66    73    74    1
    67    23    24    2
    68    74    75    1
    69    68    67    1
    70    68    70   ar
    71     8     7    1
    72     8     9    1
    73    72    70   ar
    74   100    98   ar
    75    75    85   am
    76    75    76    2
    77    85    86    1
    78    98    97    1
    79    98    99   ar
    80    97    96    1
    81    88    87    2
    82    90    89    1
    83    86    89    1
    84    86    87    1
    85    89    91    1
    86    87    92   am
    87    36    37    1
    88    36    33    1
    89    38    37    1
    90    38    39    1
    91    34    33    1
    92    34    35    2
    93    41    40    1
    94    96    93    1
    95    92    93    1
    96    33    32    1
    97    39    40    2
    98    40    42    1
    99    93    94    1
   100    94    95    2
