@<TRIPOS>MOLECULE
tmp/2jh8A00.pdb
 102 99 0 0 0
SMALL
GASTEIGER

@<TRIPOS>ATOM
      1  N         53.6500   18.1450  221.0790 N.3   271  GLU271     -0.1245
      2  CA        53.5820   19.0830  219.9730 C.3   271  GLU271      0.1567
      3  C         52.9980   18.3940  218.7200 C.2   271  GLU271      0.2260
      4  O         53.5910   18.3490  217.6570 O.2   271  GLU271     -0.2867
      5  CB        54.9650   19.7040  219.7510 C.3   271  GLU271      0.0388
      6  CG        55.1920   20.9470  220.6350 C.3   271  GLU271      0.1160
      7  CD        56.6460   21.1690  221.0600 C.2   271  GLU271      0.3649
      8  OE1       57.5610   21.3320  220.1700 O.co2 271  GLU271     -0.2457
      9  OE2       56.8510   21.2130  222.3260 O.co2 271  GLU271     -0.2457
     10  N         53.0370   21.5920  216.5880 N.3   274  ARG274     -0.1245
     11  CA        54.1420   21.5690  215.6980 C.3   274  ARG274      0.1563
     12  C         53.5640   20.9670  214.4370 C.2   274  ARG274      0.2260
     13  O         53.7370   21.5090  213.3460 O.2   274  ARG274     -0.2867
     14  CB        55.2360   20.6320  216.2410 C.3   274  ARG274      0.0307
     15  CG        56.5090   21.2440  216.9170 C.3   274  ARG274      0.0489
     16  CD        57.8020   20.3730  216.6220 C.3   274  ARG274      0.2205
     17  NE        57.8980   19.1080  217.3830 N.pl3 274  ARG274     -0.0865
     18  CZ        58.2460   17.9230  216.8740 C.cat 274  ARG274      0.5346
     19  NH1       58.3150   16.8440  217.6510 N.pl3 274  ARG274      0.1354
     20  NH2       58.5140   17.8190  215.5880 N.pl3 274  ARG274      0.1354
     21  N         58.9380   19.6580  210.6200 N.3   300  ARG300     -0.1231
     22  CA        59.4280   18.8240  211.7070 C.3   300  ARG300      0.1694
     23  C         58.8060   17.4410  211.6310 C.2   300  ARG300      0.2592
     24  O         57.6040   17.2770  211.3810 O.2   300  ARG300     -0.2718
     25  CB        59.1640   19.4460  213.0830 C.3   300  ARG300      0.0321
     26  CG        57.7430   20.0650  213.2700 C.3   300  ARG300      0.0489
     27  CD        57.7500   21.6390  213.1370 C.3   300  ARG300      0.2205
     28  NE        57.4770   22.3440  214.3920 N.pl3 300  ARG300     -0.0865
     29  CZ        56.5330   23.2610  214.5440 C.cat 300  ARG300      0.5346
     30  NH1       55.7800   23.6130  213.5140 N.pl3 300  ARG300      0.1354
     31  NH2       56.3490   23.8230  215.7300 N.pl3 300  ARG300      0.1354
     32  N         59.6820   16.4700  211.8500 N.am  301  ILE301     -0.1966
     33  CA        59.3740   15.0570  211.9150 C.3   301  ILE301      0.1712
     34  C         58.9450   14.6250  213.3300 C.2   301  ILE301      0.2458
     35  O         59.6800   14.8040  214.2920 O.2   301  ILE301     -0.2730
     36  CB        60.6250   14.2690  211.5390 C.3   301  ILE301      0.0289
     37  CG1       61.4220   15.0520  210.4950 C.3   301  ILE301      0.0022
     38  CG2       60.2720   12.8530  211.0920 C.3   301  ILE301      0.0023
     39  CD1       62.8180   14.5030  210.2490 C.3   301  ILE301      0.0001
     40  N         57.7530   14.0390  213.4560 N.am  302  PRO302     -0.2716
     41  CA        57.2110   13.5470  214.7260 C.3   302  PRO302      0.1536
     42  C         58.1190   12.5850  215.4890 C.2   302  PRO302      0.2598
     43  O         59.0970   12.1170  214.9220 O.2   302  PRO302     -0.2715
     44  CB        55.9500   12.8020  214.2920 C.3   302  PRO302      0.0310
     45  CG        56.0740   12.6610  212.7960 C.3   302  PRO302      0.0237
     46  CD        56.8160   13.8320  212.3460 C.3   302  PRO302      0.0939
     47  N         57.7990   12.3250  216.7650 N.am  303  ASN303     -0.1973
     48  CA        58.4250   11.2490  217.5490 C.3   303  ASN303      0.1688
     49  C         57.3870   10.1900  217.7530 C.2   303  ASN303      0.2292
     50  O         57.6070    9.0210  217.4590 O.2   303  ASN303     -0.2864
     51  CB        58.8360   11.7000  218.9550 C.3   303  ASN303      0.1181
     52  CG        60.0840   12.5210  218.9700 C.2   303  ASN303      0.2629
     53  OD1       61.1920   12.0070  219.1580 O.2   303  ASN303     -0.2716
     54  ND2       59.9170   13.8190  218.7920 N.am  303  ASN303     -0.0877
     55  N         71.1520   17.2890  215.2630 N.3   324  ASP324     -0.1225
     56  CA        70.0300   16.8510  216.1100 C.3   324  ASP324      0.1805
     57  C         68.6810   17.4100  215.6330 C.2   324  ASP324      0.2598
     58  O         67.6130   16.9800  216.0800 O.2   324  ASP324     -0.2718
     59  CB        70.2830   17.1390  217.6040 C.3   324  ASP324      0.1424
     60  CG        70.8080   18.5540  217.8780 C.2   324  ASP324      0.3668
     61  OD1       70.3280   19.5310  217.2600 O.co2 324  ASP324     -0.2456
     62  OD2       71.6880   18.6890  218.7610 O.co2 324  ASP324     -0.2456
     63  N         68.7520   18.3550  214.7000 N.am  325  MET325     -0.1965
     64  CA        67.5800   18.9720  214.1280 C.3   325  MET325      0.1736
     65  C         66.9670   17.9330  213.2910 C.2   325  MET325      0.2616
     66  O         67.5740   17.5740  212.2900 O.2   325  MET325     -0.2715
     67  CB        67.9710   20.0980  213.1750 C.3   325  MET325      0.0427
     68  CG        66.7760   20.9140  212.7660 C.3   325  MET325      0.0599
     69  SD        66.1730   21.8360  214.2010 S.3   325  MET325     -0.1393
     70  CE        67.5460   23.0260  214.2140 C.3   325  MET325      0.0692
     71  N         65.7900   17.4410  213.6810 N.am  326  TYR326     -0.1960
     72  CA        65.0110   16.5300  212.7970 C.3   326  TYR326      0.1771
     73  C         63.8170   17.2650  212.1620 C.2   326  TYR326      0.2619
     74  O         62.6440   16.9940  212.4370 O.2   326  TYR326     -0.2715
     75  CB        64.6060   15.2140  213.4890 C.3   326  TYR326      0.0574
     76  CG        65.7520   14.2770  213.8360 C.ar  326  TYR326     -0.0198
     77  CD1       66.5760   14.5200  214.9330 C.ar  326  TYR326     -0.0009
     78  CD2       65.9940   13.1360  213.0860 C.ar  326  TYR326     -0.0009
     79  CE1       67.6330   13.6520  215.2610 C.ar  326  TYR326      0.0417
     80  CE2       67.0400   12.2560  213.4080 C.ar  326  TYR326      0.0417
     81  CZ        67.8510   12.5210  214.4960 C.ar  326  TYR326      0.1957
     82  OH        68.8740   11.6600  214.8120 O.3   326  TYR326     -0.2866
     83  N         64.1800   18.2110  211.3040 N.am  327  GLU327     -0.1977
     84  CA        63.2700   19.0740  210.5850 C.3   327  GLU327      0.1602
     85  C         63.7090   19.1610  209.1000 C.2   327  GLU327      0.2287
     86  O         64.6230   19.9200  208.7210 O.2   327  GLU327     -0.2864
     87  CB        63.2430   20.4510  211.2560 C.3   327  GLU327      0.0415
     88  CG        62.4060   21.4920  210.5370 C.3   327  GLU327      0.1163
     89  CD        62.8780   22.9130  210.7920 C.2   327  GLU327      0.3649
     90  OE1       62.3560   23.5540  211.7290 O.co2 327  GLU327     -0.2457
     91  OE2       63.7620   23.3820  210.0570 O.co2 327  GLU327     -0.2457
     92  N         64.0480    9.7650  209.3810 N.3   359  ARG359     -0.1245
     93  CA        65.0180    9.8570  210.4600 C.3   359  ARG359      0.1563
     94  C         66.3830    9.6150  209.8730 C.2   359  ARG359      0.2260
     95  O         67.2840   10.4410  210.0020 O.2   359  ARG359     -0.2867
     96  CB        64.7030    8.8140  211.5260 C.3   359  ARG359      0.0307
     97  CG        64.0670    9.4090  212.7700 C.3   359  ARG359      0.0489
     98  CD        63.0030    8.4630  213.2990 C.3   359  ARG359      0.2205
     99  NE        61.6960    9.1340  213.4040 N.pl3 359  ARG359     -0.0865
    100  CZ        60.8860    9.0550  214.4760 C.cat 359  ARG359      0.5346
    101  NH1       61.2310    8.3390  215.5670 N.pl3 359  ARG359      0.1354
    102  NH2       59.7210    9.7110  214.4680 N.pl3 359  ARG359      0.1354
@<TRIPOS>BOND
     1    86    85    2
     2    85    84    1
     3    92    93    1
     4    94    95    2
     5    94    93    1
     6    91    89   ar
     7    39    37    1
     8    93    96    1
     9    37    36    1
    10    88    89    1
    11    88    87    1
    12    84    87    1
    13    84    83    1
    14    21    22    1
    15    89    90   ar
    16    38    36    1
    17    83    73   am
    18    24    23    2
    19    96    97    1
    20    36    33    1
    21    23    22    1
    22    23    32   am
    23    22    25    1
    24    32    33    1
    25    33    34    1
    26    73    74    2
    27    73    72    1
    28    66    65    2
    29    46    45    1
    30    46    40    1
    31    68    67    1
    32    68    69    1
    33    97    98    1
    34    45    44    1
    35    72    75    1
    36    72    71    1
    37    25    26    1
    38    78    80   ar
    39    78    76   ar
    40    27    26    1
    41    27    28    1
    42    67    64    1
    43    65    71   am
    44    65    64    1
    45    98    99    1
    46    34    40   am
    47    34    35    2
    48    13    12    2
    49    99   100    2
    50    80    81   ar
    51    40    41    1
    52    75    76    1
    53    30    29    1
    54    76    77   ar
    55    64    63    1
    56    69    70    1
    57    44    41    1
    58    28    29    2
    59    12    11    1
    60   102   100    1
    61   100   101    1
    62    81    82    1
    63    81    79   ar
    64    29    31    1
    65    63    57   am
    66    41    42    1
    67    43    42    2
    68    77    79   ar
    69    55    56    1
    70    42    47   am
    71    20    18    1
    72    57    58    2
    73    57    56    1
    74    11    14    1
    75    11    10    1
    76    56    59    1
    77    14    15    1
    78    16    15    1
    79    16    17    1
    80    47    48    1
    81    18    17    2
    82    18    19    1
    83    61    60   ar
    84    50    49    2
    85    48    49    1
    86    48    51    1
    87    59    60    1
    88     4     3    2
    89    60    62   ar
    90     3     2    1
    91    54    52   am
    92    51    52    1
    93    52    53    2
    94     5     2    1
    95     5     6    1
    96     2     1    1
    97     8     7   ar
    98     6     7    1
    99     7     9   ar
