@<TRIPOS>MOLECULE
tmp/2jhaA00.pdb
 149 140 0 0 0
SMALL
GASTEIGER

@<TRIPOS>ATOM
      1  N         71.5740   27.4660  209.8700 N.3   177  LYS177     -0.1231
      2  CA        70.3670   26.8040  209.3830 C.3   177  LYS177      0.1693
      3  C         69.5050   27.7740  208.5860 C.2   177  LYS177      0.2591
      4  O         69.6190   27.8440  207.3670 O.2   177  LYS177     -0.2718
      5  CB        69.5630   26.1900  210.5280 C.3   177  LYS177      0.0285
      6  CG        68.3910   25.3170  210.0640 C.3   177  LYS177      0.0035
      7  CD        67.4890   24.8790  211.2150 C.3   177  LYS177      0.0206
      8  CE        66.3310   25.8380  211.4380 C.3   177  LYS177      0.1093
      9  NZ        66.2280   26.2310  212.8750 N.3   177  LYS177     -0.1314
     10  N         68.6930   28.5520  209.2960 N.am  178  LEU178     -0.1980
     11  CA        67.6580   29.4050  208.7040 C.3   178  LEU178      0.1596
     12  C         68.0860   30.2640  207.5160 C.2   178  LEU178      0.2287
     13  O         67.3920   30.2950  206.4870 O.2   178  LEU178     -0.2864
     14  CB        66.9630   30.2670  209.7750 C.3   178  LEU178      0.0297
     15  CG        65.9630   29.5430  210.7120 C.3   178  LEU178      0.0022
     16  CD1       65.5090   30.3840  211.9440 C.3   178  LEU178      0.0001
     17  CD2       64.7370   28.9800  209.9570 C.3   178  LEU178      0.0001
     18  N         57.4110   29.1490  208.7740 N.3   264  ASP264     -0.1239
     19  CA        58.3870   28.7710  209.8040 C.3   264  ASP264      0.1674
     20  C         57.8640   29.2270  211.1540 C.2   264  ASP264      0.2266
     21  O         58.1910   30.2870  211.6480 O.2   264  ASP264     -0.2867
     22  CB        59.7590   29.3780  209.4850 C.3   264  ASP264      0.1410
     23  CG        60.7520   29.2350  210.6270 C.2   264  ASP264      0.3668
     24  OD1       61.1130   28.0990  211.0070 O.co2 264  ASP264     -0.2456
     25  OD2       61.1820   30.2880  211.1310 O.co2 264  ASP264     -0.2456
     26  N         56.3740   28.4070  215.1640 N.3   266  SER266     -0.1202
     27  CA        56.3030   27.6490  216.4170 C.3   266  SER266      0.2020
     28  C         55.9950   28.5620  217.5950 C.2   266  SER266      0.2619
     29  O         56.4240   29.7190  217.6070 O.2   266  SER266     -0.2717
     30  CB        57.5880   26.8460  216.6730 C.3   266  SER266      0.2103
     31  OG        58.7570   27.5270  216.2360 O.3   266  SER266     -0.2182
     32  N         55.2660   28.0230  218.5780 N.am  267  SER267     -0.1937
     33  CA        54.6840   28.8150  219.6680 C.3   267  SER267      0.2055
     34  C         55.5870   28.9240  220.8990 C.2   267  SER267      0.2643
     35  O         56.7460   29.3270  220.7970 O.2   267  SER267     -0.2714
     36  CB        53.3320   28.2190  220.0740 C.3   267  SER267      0.2130
     37  OG        52.4120   28.2750  219.0010 O.3   267  SER267     -0.2179
     38  N         55.0310   28.5710  222.0610 N.am  268  ASP268     -0.1971
     39  CA        55.7350   28.5970  223.3400 C.3   268  ASP268      0.1709
     40  C         55.1950   27.4770  224.2390 C.2   268  ASP268      0.2293
     41  O         55.2260   27.5800  225.4910 O.2   268  ASP268     -0.2864
     42  CB        55.6010   29.9860  224.0190 C.3   268  ASP268      0.1436
     43  CG        56.2090   31.1350  223.1300 C.2   268  ASP268      0.3671
     44  OD1       57.3450   30.9860  222.6940 O.co2 268  ASP268     -0.2456
     45  OD2       55.5560   32.1960  223.0700 O.co2 268  ASP268     -0.2456
     46  N         53.3750   18.1290  222.5920 N.3   271  GLU271     -0.1245
     47  CA        53.2530   19.0190  221.4350 C.3   271  GLU271      0.1567
     48  C         52.6980   18.3500  220.1550 C.2   271  GLU271      0.2260
     49  O         53.4220   18.0990  219.1800 O.2   271  GLU271     -0.2867
     50  CB        54.5640   19.8110  221.1970 C.3   271  GLU271      0.0388
     51  CG        54.5740   21.2060  221.8790 C.3   271  GLU271      0.1160
     52  CD        55.9590   21.6770  222.3680 C.2   271  GLU271      0.3649
     53  OE1       56.7970   22.1700  221.5070 O.co2 271  GLU271     -0.2457
     54  OE2       56.1760   21.5960  223.6460 O.co2 271  GLU271     -0.2457
     55  N         53.0440   21.6350  218.1180 N.3   274  ARG274     -0.1245
     56  CA        54.1550   21.6690  217.1720 C.3   274  ARG274      0.1563
     57  C         53.6660   21.2380  215.8150 C.2   274  ARG274      0.2260
     58  O         53.9880   21.8500  214.8030 O.2   274  ARG274     -0.2867
     59  CB        55.2270   20.6500  217.5790 C.3   274  ARG274      0.0307
     60  CG        56.5290   21.1690  218.2070 C.3   274  ARG274      0.0489
     61  CD        57.7240   20.2190  217.8930 C.3   274  ARG274      0.2205
     62  NE        57.6320   18.8950  218.5320 N.pl3 274  ARG274     -0.0865
     63  CZ        58.3590   17.8320  218.1820 C.cat 274  ARG274      0.5346
     64  NH1       58.2070   16.6800  218.8300 N.pl3 274  ARG274      0.1354
     65  NH2       59.2400   17.9160  217.1900 N.pl3 274  ARG274      0.1354
     66  N         58.0920   24.5540  207.2220 N.3   298  LYS298     -0.1245
     67  CA        58.8130   23.9320  208.3280 C.3   298  LYS298      0.1561
     68  C         58.1520   22.5650  208.5900 C.2   298  LYS298      0.2260
     69  O         56.9730   22.3540  208.2380 O.2   298  LYS298     -0.2867
     70  CB        58.7390   24.8590  209.5360 C.3   298  LYS298      0.0271
     71  CG        59.5230   24.4510  210.7250 C.3   298  LYS298      0.0035
     72  CD        58.5640   24.4500  211.9110 C.3   298  LYS298      0.0206
     73  CE        59.0190   25.3330  213.0650 C.3   298  LYS298      0.1093
     74  NZ        60.4190   25.0430  213.4720 N.3   298  LYS298     -0.1314
     75  N         58.9340   19.8350  211.6160 N.3   300  ARG300     -0.1231
     76  CA        59.5300   19.0740  212.7100 C.3   300  ARG300      0.1694
     77  C         58.9590   17.6530  212.7240 C.2   300  ARG300      0.2591
     78  O         57.7690   17.4440  212.4140 O.2   300  ARG300     -0.2718
     79  CB        59.3160   19.7750  214.0640 C.3   300  ARG300      0.0321
     80  CG        57.9300   20.4480  214.2380 C.3   300  ARG300      0.0489
     81  CD        57.9710   22.0060  214.1620 C.3   300  ARG300      0.2205
     82  NE        57.8370   22.6390  215.4850 N.pl3 300  ARG300     -0.0865
     83  CZ        56.8270   23.4210  215.8710 C.cat 300  ARG300      0.5346
     84  NH1       55.8390   23.7190  215.0300 N.pl3 300  ARG300      0.1354
     85  NH2       56.8120   23.9130  217.1100 N.pl3 300  ARG300      0.1354
     86  N         59.8260   16.7050  213.0920 N.am  301  ILE301     -0.1980
     87  CA        59.5430   15.2640  213.1160 C.3   301  ILE301      0.1595
     88  C         59.0900   14.7470  214.4930 C.2   301  ILE301      0.2287
     89  O         59.8940   14.7060  215.4250 O.2   301  ILE301     -0.2864
     90  CB        60.8090   14.4960  212.7450 C.3   301  ILE301      0.0276
     91  CG1       61.4730   15.1420  211.5270 C.3   301  ILE301      0.0022
     92  CG2       60.5110   12.9970  212.5730 C.3   301  ILE301      0.0022
     93  CD1       62.9150   14.7140  211.3070 C.3   301  ILE301      0.0001
     94  N         57.6790   12.9500  218.0920 N.3   303  ASN303     -0.1240
     95  CA        58.2310   11.9370  219.0010 C.3   303  ASN303      0.1653
     96  C         57.3380   10.7110  219.0120 C.2   303  ASN303      0.2266
     97  O         57.7840    9.5760  218.8420 O.2   303  ASN303     -0.2867
     98  CB        58.2470   12.4460  220.4550 C.3   303  ASN303      0.1155
     99  CG        59.5170   13.1750  220.8310 C.2   303  ASN303      0.2627
    100  OD1       59.6320   14.3840  220.6110 O.2   303  ASN303     -0.2716
    101  ND2       60.4520   12.4570  221.4620 N.am  303  ASN303     -0.0877
    102  N         71.7040   17.3810  216.4080 N.3   324  ASP324     -0.1225
    103  CA        70.5290   16.9700  217.1880 C.3   324  ASP324      0.1805
    104  C         69.2250   17.5330  216.6430 C.2   324  ASP324      0.2598
    105  O         68.1690   16.9350  216.8300 O.2   324  ASP324     -0.2718
    106  CB        70.6670   17.2920  218.6900 C.3   324  ASP324      0.1424
    107  CG        71.7030   18.3830  218.9930 C.2   324  ASP324      0.3668
    108  OD1       71.7570   19.4060  218.2590 O.co2 324  ASP324     -0.2456
    109  OD2       72.4510   18.2100  219.9960 O.co2 324  ASP324     -0.2456
    110  N         69.3210   18.6800  215.9720 N.am  325  MET325     -0.1965
    111  CA        68.1940   19.3730  215.3540 C.3   325  MET325      0.1736
    112  C         67.4270   18.3830  214.5290 C.2   325  MET325      0.2616
    113  O         67.9430   17.9310  213.5150 O.2   325  MET325     -0.2715
    114  CB        68.7420   20.4850  214.4490 C.3   325  MET325      0.0427
    115  CG        67.7610   21.1260  213.4730 C.3   325  MET325      0.0599
    116  SD        66.9280   22.5420  214.1880 S.3   325  MET325     -0.1393
    117  CE        68.3370   23.5360  214.6990 C.3   325  MET325      0.0692
    118  N         66.2140   18.0360  214.9620 N.am  326  TYR326     -0.1960
    119  CA        65.3920   17.0260  214.2550 C.3   326  TYR326      0.1771
    120  C         64.1710   17.5990  213.5010 C.2   326  TYR326      0.2619
    121  O         63.0070   17.2890  213.7870 O.2   326  TYR326     -0.2715
    122  CB        64.9920   15.8880  215.1890 C.3   326  TYR326      0.0574
    123  CG        66.0070   14.7720  215.3030 C.ar  326  TYR326     -0.0198
    124  CD1       66.8850   14.7060  216.3890 C.ar  326  TYR326     -0.0009
    125  CD2       66.0710   13.7620  214.3420 C.ar  326  TYR326     -0.0009
    126  CE1       67.8260   13.6560  216.5140 C.ar  326  TYR326      0.0417
    127  CE2       66.9990   12.7030  214.4490 C.ar  326  TYR326      0.0417
    128  CZ        67.8710   12.6520  215.5400 C.ar  326  TYR326      0.1957
    129  OH        68.7820   11.6150  215.6490 O.3   326  TYR326     -0.2866
    130  N         64.4880   18.4130  212.5010 N.am  327  GLU327     -0.1977
    131  CA        63.5260   19.1970  211.7480 C.3   327  GLU327      0.1602
    132  C         63.9900   19.2650  210.2890 C.2   327  GLU327      0.2287
    133  O         65.0310   19.8280  209.9760 O.2   327  GLU327     -0.2864
    134  CB        63.4150   20.6110  212.3690 C.3   327  GLU327      0.0415
    135  CG        62.7910   21.6850  211.4530 C.3   327  GLU327      0.1163
    136  CD        62.9580   23.1070  211.9740 C.2   327  GLU327      0.3649
    137  OE1       62.5850   23.3760  213.1330 O.co2 327  GLU327     -0.2457
    138  OE2       63.4480   23.9620  211.2130 O.co2 327  GLU327     -0.2457
    139  N         64.1490    9.8310  210.5700 N.3   359  ARG359     -0.1245
    140  CA        65.0450    9.9390  211.6960 C.3   359  ARG359      0.1563
    141  C         66.4440    9.7060  211.1670 C.2   359  ARG359      0.2260
    142  O         67.3180   10.5600  211.3060 O.2   359  ARG359     -0.2867
    143  CB        64.6770    8.8770  212.7280 C.3   359  ARG359      0.0307
    144  CG        64.4060    9.3970  214.1120 C.3   359  ARG359      0.0489
    145  CD        63.1700    8.7220  214.6920 C.3   359  ARG359      0.2205
    146  NE        62.0470    9.6520  214.8140 N.pl3 359  ARG359     -0.0865
    147  CZ        61.1500    9.6240  215.8040 C.cat 359  ARG359      0.5346
    148  NH1       61.2270    8.7130  216.7760 N.pl3 359  ARG359      0.1354
    149  NH2       60.1730   10.5220  215.8330 N.pl3 359  ARG359      0.1354
@<TRIPOS>BOND
     1    13    12    2
     2    66    67    1
     3     4     3    2
     4    12    11    1
     5    69    68    2
     6    67    68    1
     7    67    70    1
     8     3    10   am
     9     3     2    1
    10    11    10    1
    11    11    14    1
    12    18    19    1
    13     2     1    1
    14     2     5    1
    15    22    19    1
    16    22    23    1
    17    70    71    1
    18    14    15    1
    19    19    20    1
    20    17    15    1
    21   133   132    2
    22     6     5    1
    23     6     7    1
    24   132   131    1
    25   139   140    1
    26    23    24   ar
    27    23    25   ar
    28    15    16    1
    29    71    72    1
    30    20    21    2
    31   141   142    2
    32   141   140    1
    33   138   136   ar
    34     7     8    1
    35    93    91    1
    36     8     9    1
    37   135   136    1
    38   135   134    1
    39    91    90    1
    40    75    76    1
    41   140   143    1
    42   131   134    1
    43   131   130    1
    44    72    73    1
    45   136   137   ar
    46    78    77    2
    47   130   120   am
    48    92    90    1
    49    76    77    1
    50    76    79    1
    51    77    86   am
    52   143   144    1
    53    90    87    1
    54    73    74    1
    55    86    87    1
    56    87    88    1
    57   115   116    1
    58   115   114    1
    59   120   121    2
    60   120   119    1
    61   113   112    2
    62    79    80    1
    63   144   145    1
    64    81    80    1
    65    81    82    1
    66   116   117    1
    67   119   118    1
    68   119   122    1
    69   125   127   ar
    70   125   123   ar
    71   127   128   ar
    72   114   111    1
    73    88    89    2
    74   112   118   am
    75   112   111    1
    76   145   146    1
    77    58    57    2
    78   146   147    2
    79    84    83    1
    80    26    27    1
    81   122   123    1
    82   123   124   ar
    83   111   110    1
    84    82    83    2
    85   128   129    1
    86   128   126   ar
    87   147   149    1
    88   147   148    1
    89    57    56    1
    90    83    85    1
    91   110   104   am
    92    31    30    1
    93   124   126   ar
    94   102   103    1
    95    27    30    1
    96    27    28    1
    97   104   105    2
    98   104   103    1
    99    56    59    1
   100    56    55    1
   101   103   106    1
   102    65    63    1
   103    59    60    1
   104    28    29    2
   105    28    32   am
   106    61    60    1
   107    61    62    1
   108    94    95    1
   109    63    62    2
   110    63    64    1
   111   108   107   ar
   112    32    33    1
   113   106   107    1
   114    97    96    2
   115   107   109   ar
   116    95    96    1
   117    95    98    1
   118    37    36    1
   119    49    48    2
   120    33    36    1
   121    33    34    1
   122    48    47    1
   123    98    99    1
   124   100    99    2
   125    35    34    2
   126    99   101   am
   127    34    38   am
   128    50    47    1
   129    50    51    1
   130    47    46    1
   131    53    52   ar
   132    51    52    1
   133    38    39    1
   134    52    54   ar
   135    44    43   ar
   136    45    43   ar
   137    43    42    1
   138    39    42    1
   139    39    40    1
   140    40    41    2
