@<TRIPOS>MOLECULE
tmp/2jhaA02.pdb
 103 101 0 0 0
SMALL
GASTEIGER

@<TRIPOS>ATOM
      1  N         91.1640   29.3460  186.7160 N.3   113  ARG113     -0.1231
      2  CA        90.1940   28.5280  185.9840 C.3   113  ARG113      0.1694
      3  C         88.7990   29.1340  185.8660 C.2   113  ARG113      0.2591
      4  O         88.1270   28.9240  184.8650 O.2   113  ARG113     -0.2718
      5  CB        90.0580   27.1460  186.6200 C.3   113  ARG113      0.0321
      6  CG        91.2740   26.2520  186.4680 C.3   113  ARG113      0.0489
      7  CD        90.9480   24.7710  186.7360 C.3   113  ARG113      0.2205
      8  NE        92.1560   24.0030  187.0490 N.pl3 113  ARG113     -0.0865
      9  CZ        92.1690   22.7250  187.4230 C.cat 113  ARG113      0.5346
     10  NH1       91.0290   22.0500  187.5260 N.pl3 113  ARG113      0.1354
     11  NH2       93.3260   22.1220  187.6940 N.pl3 113  ARG113      0.1354
     12  N         88.3480   29.8660  186.8770 N.am  114  LYS114     -0.1980
     13  CA        86.9930   30.3790  186.8150 C.3   114  LYS114      0.1596
     14  C         86.8640   31.5260  185.8520 C.2   114  LYS114      0.2287
     15  O         85.8350   31.6690  185.2050 O.2   114  LYS114     -0.2864
     16  CB        86.4550   30.8000  188.1800 C.3   114  LYS114      0.0298
     17  CG        84.9530   30.4620  188.3660 C.3   114  LYS114      0.0038
     18  CD        84.3070   31.2600  189.5040 C.3   114  LYS114      0.0206
     19  CE        83.5040   32.4470  188.9770 C.3   114  LYS114      0.1093
     20  NZ        83.5260   33.6420  189.8740 N.3   114  LYS114     -0.1314
     21  N         88.1880   32.1840  182.9750 N.3   116  PHE116     -0.1227
     22  CA        87.9270   31.6490  181.6590 C.3   116  PHE116      0.1736
     23  C         86.4210   31.3340  181.5110 C.2   116  PHE116      0.2596
     24  O         85.6600   32.1500  180.9630 O.2   116  PHE116     -0.2718
     25  CB        88.8520   30.4450  181.4410 C.3   116  PHE116      0.0547
     26  CG        88.5760   29.6900  180.2160 C.ar  116  PHE116     -0.0202
     27  CD1       88.6850   30.2870  178.9810 C.ar  116  PHE116     -0.0042
     28  CD2       88.2300   28.3740  180.2840 C.ar  116  PHE116     -0.0042
     29  CE1       88.4320   29.5780  177.8290 C.ar  116  PHE116     -0.0003
     30  CE2       87.9790   27.6560  179.1420 C.ar  116  PHE116     -0.0003
     31  CZ        88.0800   28.2530  177.9150 C.ar  116  PHE116     -0.0000
     32  N         85.9810   30.1940  182.0370 N.am  117  GLY117     -0.1957
     33  CA        84.5520   29.8630  182.0830 C.3   117  GLY117      0.1869
     34  C         83.6570   31.0750  182.1930 C.2   117  GLY117      0.2309
     35  O         82.6150   31.1340  181.5700 O.2   117  GLY117     -0.2863
     36  N         80.6460   32.0300  179.5550 N.3   121  ARG121     -0.1245
     37  CA        79.3590   32.2080  180.1770 C.3   121  ARG121      0.1563
     38  C         78.7800   33.6310  179.9430 C.2   121  ARG121      0.2260
     39  O         77.6370   33.8250  179.4900 O.2   121  ARG121     -0.2867
     40  CB        79.5780   31.9630  181.6630 C.3   121  ARG121      0.0307
     41  CG        78.4180   31.3960  182.4090 C.3   121  ARG121      0.0489
     42  CD        78.8130   31.1860  183.8670 C.3   121  ARG121      0.2205
     43  NE        79.3760   29.8540  184.0610 N.pl3 121  ARG121     -0.0865
     44  CZ        80.6260   29.5930  184.4340 C.cat 121  ARG121      0.5346
     45  NH1       81.4970   30.5770  184.6840 N.pl3 121  ARG121      0.1354
     46  NH2       81.0000   28.3240  184.5630 N.pl3 121  ARG121      0.1354
     47  N         76.3660   27.6870  189.4550 N.3   137  GLU137     -0.1245
     48  CA        77.0700   28.8610  188.9360 C.3   137  GLU137      0.1567
     49  C         76.2550   29.5300  187.8520 C.2   137  GLU137      0.2260
     50  O         75.8570   30.6760  188.0220 O.2   137  GLU137     -0.2867
     51  CB        78.5070   28.5270  188.4840 C.3   137  GLU137      0.0388
     52  CG        78.6410   27.6890  187.2100 C.3   137  GLU137      0.1160
     53  CD        77.8260   26.3850  187.2630 C.2   137  GLU137      0.3649
     54  OE1       77.7430   25.7640  188.3750 O.co2 137  GLU137     -0.2457
     55  OE2       77.2730   25.9940  186.1940 O.co2 137  GLU137     -0.2457
     56  N         80.8510   23.0460  179.2400 N.3   402  PHE402     -0.1241
     57  CA        81.5570   22.3000  180.2950 C.3   402  PHE402      0.1605
     58  C         80.7130   21.1430  180.8460 C.2   402  PHE402      0.2264
     59  O         80.6540   20.9240  182.0710 O.2   402  PHE402     -0.2867
     60  CB        81.9820   23.2110  181.4610 C.3   402  PHE402      0.0534
     61  CG        82.5980   24.5180  181.0550 C.ar  402  PHE402     -0.0203
     62  CD1       82.0810   25.7170  181.5410 C.ar  402  PHE402     -0.0042
     63  CD2       83.7180   24.5650  180.2380 C.ar  402  PHE402     -0.0042
     64  CE1       82.6590   26.9570  181.2080 C.ar  402  PHE402     -0.0003
     65  CE2       84.3030   25.8060  179.8870 C.ar  402  PHE402     -0.0003
     66  CZ        83.7620   27.0000  180.3770 C.ar  402  PHE402     -0.0000
     67  N         89.7490   17.6130  186.6570 N.3   438  TYR438     -0.1241
     68  CA        88.7840   17.5060  185.5630 C.3   438  TYR438      0.1605
     69  C         88.5390   16.0690  185.0690 C.2   438  TYR438      0.2264
     70  O         89.4890   15.3170  184.8410 O.2   438  TYR438     -0.2867
     71  CB        89.1470   18.4650  184.4330 C.3   438  TYR438      0.0534
     72  CG        87.9630   19.3090  184.0260 C.ar  438  TYR438     -0.0201
     73  CD1       87.4960   20.3480  184.8540 C.ar  438  TYR438     -0.0009
     74  CD2       87.2890   19.0550  182.8320 C.ar  438  TYR438     -0.0009
     75  CE1       86.3960   21.1190  184.4830 C.ar  438  TYR438      0.0417
     76  CE2       86.1940   19.8140  182.4480 C.ar  438  TYR438      0.0417
     77  CZ        85.7500   20.8430  183.2700 C.ar  438  TYR438      0.1957
     78  OH        84.6550   21.5780  182.8610 O.3   438  TYR438     -0.2866
     79  N         95.5480   26.2930  180.1690 N.3   487  TRP487     -0.1241
     80  CA        94.2750   25.6270  180.4260 C.3   487  TRP487      0.1605
     81  C         93.2210   26.0310  179.4030 C.2   487  TRP487      0.2264
     82  O         92.5030   25.1780  178.8940 O.2   487  TRP487     -0.2867
     83  CB        93.8470   25.9580  181.8510 C.3   487  TRP487      0.0550
     84  CG        92.4400   25.7320  182.1720 C.ar  487  TRP487      0.0003
     85  CD1       91.4120   26.6310  182.0670 C.ar  487  TRP487      0.0946
     86  CD2       91.8760   24.5360  182.7100 C.ar  487  TRP487      0.0152
     87  NE1       90.2360   26.0570  182.5060 N.ar  487  TRP487     -0.2442
     88  CE2       90.4990   24.7730  182.9070 C.ar  487  TRP487      0.0810
     89  CE3       92.3990   23.2790  183.0290 C.ar  487  TRP487      0.0012
     90  CZ2       89.6590   23.8130  183.3980 C.ar  487  TRP487      0.0191
     91  CZ3       91.5690   22.3480  183.5230 C.ar  487  TRP487      0.0001
     92  CH2       90.2110   22.6120  183.7070 C.ar  487  TRP487      0.0015
     93  N         90.4790   23.3530  176.1020 N.3   491  PHE491     -0.1241
     94  CA        89.1130   23.4080  175.6380 C.3   491  PHE491      0.1605
     95  C         88.9180   23.6860  174.1750 C.2   491  PHE491      0.2264
     96  O         89.6860   24.4330  173.5950 O.2   491  PHE491     -0.2867
     97  CB        88.3660   24.3890  176.4970 C.3   491  PHE491      0.0534
     98  CG        88.0810   23.8390  177.8450 C.ar  491  PHE491     -0.0203
     99  CD1       88.9760   24.0200  178.8820 C.ar  491  PHE491     -0.0042
    100  CD2       86.9450   23.0540  178.0600 C.ar  491  PHE491     -0.0042
    101  CE1       88.7070   23.4820  180.1270 C.ar  491  PHE491     -0.0003
    102  CE2       86.6870   22.5060  179.2950 C.ar  491  PHE491     -0.0003
    103  CZ        87.5660   22.7290  180.3310 C.ar  491  PHE491     -0.0000
@<TRIPOS>BOND
     1    96    95    2
     2    95    94    1
     3    94    93    1
     4    94    97    1
     5    97    98    1
     6    29    31   ar
     7    29    27   ar
     8    98   100   ar
     9    98    99   ar
    10    31    30   ar
    11   100   102   ar
    12    99   101   ar
    13    82    81    2
    14    27    26   ar
    15    30    28   ar
    16    56    57    1
    17   102   103   ar
    18    81    80    1
    19    39    38    2
    20    36    37    1
    21    65    63   ar
    22    65    66   ar
    23    38    37    1
    24   101   103   ar
    25    79    80    1
    26    37    40    1
    27    26    28   ar
    28    26    25    1
    29    63    61   ar
    30    57    58    1
    31    57    60    1
    32    66    64   ar
    33    80    83    1
    34    58    59    2
    35    24    23    2
    36    61    60    1
    37    61    62   ar
    38    64    62   ar
    39    25    22    1
    40    23    22    1
    41    23    32   am
    42    35    34    2
    43    22    21    1
    44    40    41    1
    45    83    84    1
    46    32    33    1
    47    85    84   ar
    48    85    87   ar
    49    33    34    1
    50    84    86   ar
    51    41    42    1
    52    76    74   ar
    53    76    77   ar
    54    87    88   ar
    55    86    88   ar
    56    86    89   ar
    57    74    72   ar
    58    78    77    1
    59    88    90   ar
    60    89    91   ar
    61    77    75   ar
    62    90    92   ar
    63    91    92   ar
    64    42    43    1
    65    72    71    1
    66    72    73   ar
    67    43    44    2
    68    71    68    1
    69    44    46    1
    70    44    45    1
    71    75    73   ar
    72    70    69    2
    73     4     3    2
    74    69    68    1
    75    15    14    2
    76    68    67    1
    77    14    13    1
    78     3     2    1
    79     3    12   am
    80     2     5    1
    81     2     1    1
    82    55    53   ar
    83     6     5    1
    84     6     7    1
    85     7     8    1
    86    13    12    1
    87    13    16    1
    88     8     9    2
    89    52    53    1
    90    52    51    1
    91    53    54   ar
    92     9    10    1
    93     9    11    1
    94    49    50    2
    95    49    48    1
    96    16    17    1
    97    17    18    1
    98    51    48    1
    99    48    47    1
   100    19    18    1
   101    19    20    1
