@<TRIPOS>MOLECULE
tmp/2jheA00.pdb
 107 105 0 0 0
SMALL
GASTEIGER

@<TRIPOS>ATOM
      1  N          7.6870   -6.2600   13.3690 N.3     7  CYS7       -0.1221
      2  CA         6.3630   -6.0670   12.8700 C.3     7  CYS7        0.1808
      3  C          6.1090   -7.0620   11.7840 C.2     7  CYS7        0.2601
      4  O          7.0440   -7.5890   11.1770 O.2     7  CYS7       -0.2717
      5  CB         6.2200   -4.6260   12.3480 C.3     7  CYS7        0.0970
      6  SG         7.4910   -4.2680   11.0840 S.3     7  CYS7       -0.0800
      7  N          4.8400   -7.3440   11.5410 N.am    8  GLU8       -0.1965
      8  CA         4.5630   -8.0880   10.3600 C.3     8  GLU8        0.1733
      9  C          4.5200   -7.1620    9.1580 C.2     8  GLU8        0.2616
     10  O          4.6880   -5.9690    9.2680 O.2     8  GLU8       -0.2715
     11  CB         3.3450   -9.0000   10.5130 C.3     8  GLU8        0.0429
     12  CG         2.1270   -8.3820   11.1310 C.3     8  GLU8        0.1163
     13  CD         1.5320   -9.2950   12.2120 C.2     8  GLU8        0.3649
     14  OE1        2.2010  -10.3020   12.5860 O.co2   8  GLU8       -0.2457
     15  OE2        0.4080   -9.0030   12.6850 O.co2   8  GLU8       -0.2457
     16  N          4.3210   -7.7700    8.0060 N.am    9  ASP9       -0.1957
     17  CA         4.3150   -7.1500    6.7090 C.3     9  ASP9        0.1840
     18  C          2.9850   -6.4490    6.4480 C.2     9  ASP9        0.2622
     19  O          2.1330   -6.9830    5.7250 O.2     9  ASP9       -0.2715
     20  CB         4.5750   -8.2560    5.6500 C.3     9  ASP9        0.1450
     21  CG         3.8680   -9.6090    5.9860 C.2     9  ASP9        0.3671
     22  OD1        3.7860   -9.9980    7.1840 O.co2   9  ASP9       -0.2456
     23  OD2        3.4050  -10.3080    5.0480 O.co2   9  ASP9       -0.2456
     24  N          2.8000   -5.2520    6.9960 N.am   10  ARG10      -0.1963
     25  CA         1.5250   -4.5640    6.7990 C.3    10  ARG10       0.1729
     26  C          1.5460   -3.1300    6.2160 C.2    10  ARG10       0.2616
     27  O          2.3570   -2.2910    6.5980 O.2    10  ARG10      -0.2715
     28  CB         0.5930   -4.6920    8.0380 C.3    10  ARG10       0.0348
     29  CG         0.9610   -3.8860    9.2180 C.3    10  ARG10       0.0492
     30  CD        -0.3200   -3.3300    9.9060 C.3    10  ARG10       0.2205
     31  NE        -0.7700   -2.0650    9.3290 N.pl3  10  ARG10      -0.0865
     32  CZ        -0.9260   -0.9020    9.9740 C.cat  10  ARG10       0.5346
     33  NH1       -0.7100   -0.7580   11.2990 N.pl3  10  ARG10       0.1354
     34  NH2       -1.3370    0.1380    9.2630 N.pl3  10  ARG10       0.1354
     35  N          0.6120   -2.8920    5.2920 N.am   11  LEU11      -0.1963
     36  CA         0.4200   -1.5970    4.6720 C.3    11  LEU11       0.1728
     37  C          0.1600   -0.5070    5.6810 C.2    11  LEU11       0.2617
     38  O         -0.7790   -0.6230    6.4950 O.2    11  LEU11      -0.2715
     39  CB        -0.7920   -1.6280    3.7450 C.3    11  LEU11       0.0311
     40  CG        -0.6640   -1.0030    2.3410 C.3    11  LEU11       0.0022
     41  CD1       -2.0180   -0.4850    1.7940 C.3    11  LEU11       0.0001
     42  CD2        0.4520    0.0290    2.2110 C.3    11  LEU11       0.0001
     43  N          0.9600    0.5600    5.6050 N.am   12  GLY12      -0.1940
     44  CA         0.7040    1.7700    6.4150 C.3    12  GLY12       0.2014
     45  C          1.3480    1.7900    7.7970 C.2    12  GLY12       0.2639
     46  O          1.1520    2.7400    8.5680 O.2    12  GLY12      -0.2714
     47  N          2.1490    0.7770    8.1150 N.am   13  LEU13      -0.1963
     48  CA         2.6670    0.6470    9.4950 C.3    13  LEU13       0.1728
     49  C          3.7510    1.7190    9.7920 C.2    13  LEU13       0.2616
     50  O          3.7950    2.3360   10.8780 O.2    13  LEU13      -0.2715
     51  CB         3.1940   -0.7660    9.7080 C.3    13  LEU13       0.0311
     52  CG         3.3860   -1.2880   11.1230 C.3    13  LEU13       0.0022
     53  CD1        3.4000   -2.7730   11.0260 C.3    13  LEU13       0.0001
     54  CD2        4.6900   -0.7300   11.6590 C.3    13  LEU13       0.0001
     55  N          4.5820    1.9690    8.8010 N.am   14  THR14      -0.1951
     56  CA         5.6580    2.9180    8.9330 C.3    14  THR14       0.1897
     57  C          5.1560    4.3560    9.1090 C.2    14  THR14       0.2313
     58  O          5.7440    5.1120    9.8810 O.2    14  THR14      -0.2863
     59  CB         6.6110    2.8240    7.7090 C.3    14  THR14       0.1794
     60  OG1        7.2890    1.5480    7.7060 O.3    14  THR14      -0.2208
     61  CG2        7.6870    3.8780    7.8390 C.3    14  THR14       0.0378
     62  N         14.7730    0.4690    7.6540 N.3    33  ILE33      -0.1231
     63  CA        13.8830   -0.6710    7.4570 C.3    33  ILE33       0.1692
     64  C         14.6740   -1.8760    6.9660 C.2    33  ILE33       0.2592
     65  O         15.4710   -1.7880    6.0290 O.2    33  ILE33      -0.2718
     66  CB        12.7980   -0.3460    6.4040 C.3    33  ILE33       0.0266
     67  CG1       11.8770    0.7610    6.9160 C.3    33  ILE33       0.0019
     68  CG2       12.0280   -1.6370    5.9310 C.3    33  ILE33       0.0020
     69  CD1       11.1590    1.4420    5.7720 C.3    33  ILE33       0.0001
     70  N         14.4220   -2.9890    7.6440 N.am   34  ASP34      -0.1960
     71  CA        14.8430   -4.3160    7.2580 C.3    34  ASP34       0.1825
     72  C         13.5850   -5.0520    6.7050 C.2    34  ASP34       0.2464
     73  O         12.6340   -5.3760    7.4780 O.2    34  ASP34      -0.2730
     74  CB        15.3380   -5.0240    8.5280 C.3    34  ASP34       0.1450
     75  CG        16.3910   -6.0250    8.2650 C.2    34  ASP34       0.3671
     76  OD1       16.5130   -6.4930    7.1040 O.co2  34  ASP34      -0.2456
     77  OD2       17.1040   -6.3640    9.2510 O.co2  34  ASP34      -0.2456
     78  N         13.5730   -5.3320    5.3890 N.am   35  PRO35      -0.2727
     79  CA        12.5830   -6.1660    4.6790 C.3    35  PRO35       0.1402
     80  C         12.1330   -7.4470    5.4250 C.2    35  PRO35       0.2269
     81  O         11.0330   -7.9570    5.1490 O.2    35  PRO35      -0.2865
     82  CB        13.3530   -6.6180    3.4090 C.3    35  PRO35       0.0296
     83  CG        14.8140   -6.1190    3.6330 C.3    35  PRO35       0.0237
     84  CD        14.6300   -4.8950    4.4670 C.3    35  PRO35       0.0939
     85  N         11.4210   -7.6420    8.5700 N.3    37  GLY37      -0.1210
     86  CA        10.3390   -7.2950    9.4830 C.3    37  GLY37       0.1956
     87  C         10.8220   -6.4160   10.6280 C.2    37  GLY37       0.2612
     88  O         10.3670   -6.5930   11.7600 O.2    37  GLY37      -0.2717
     89  N         11.7330   -5.4700   10.3480 N.am   38  ARG38      -0.1965
     90  CA        12.2510   -4.6100   11.4320 C.3    38  ARG38       0.1729
     91  C         12.4180   -3.1780   11.0100 C.2    38  ARG38       0.2616
     92  O         12.9800   -2.8630    9.9280 O.2    38  ARG38      -0.2715
     93  CB        13.6110   -5.1230   11.9770 C.3    38  ARG38       0.0348
     94  CG        13.6530   -6.5320   12.5470 C.3    38  ARG38       0.0492
     95  CD        15.0680   -7.0610   12.4320 C.3    38  ARG38       0.2205
     96  NE        15.2210   -8.4540   12.8690 N.pl3  38  ARG38      -0.0865
     97  CZ        16.3680   -8.9840   13.2980 C.cat  38  ARG38       0.5346
     98  NH1       17.4610   -8.2470   13.3890 N.pl3  38  ARG38       0.1354
     99  NH2       16.4270  -10.2450   13.6770 N.pl3  38  ARG38       0.1354
    100  N         11.9630   -2.3000   11.8890 N.am   39  ILE39      -0.1977
    101  CA        12.0180   -0.8730   11.6590 C.3    39  ILE39       0.1596
    102  C         12.8730   -0.2320   12.8170 C.2    39  ILE39       0.2287
    103  O         12.5580   -0.4180   14.0070 O.2    39  ILE39      -0.2864
    104  CB        10.5610   -0.2690   11.6210 C.3    39  ILE39       0.0276
    105  CG1        9.7570   -0.8690   10.4810 C.3    39  ILE39       0.0022
    106  CG2       10.5860    1.2480   11.4800 C.3    39  ILE39       0.0022
    107  CD1        8.3480   -0.2350   10.2930 C.3    39  ILE39       0.0001
@<TRIPOS>BOND
     1    41    40    1
     2    42    40    1
     3    40    39    1
     4    82    83    1
     5    82    79    1
     6    83    84    1
     7    39    36    1
     8    84    78    1
     9    36    35    1
    10    36    37    1
    11    79    78    1
    12    79    80    1
    13    23    21   ar
    14    81    80    2
    15    35    26   am
    16    78    72   am
    17    43    37   am
    18    43    44    1
    19    20    21    1
    20    20    17    1
    21    37    38    2
    22    19    18    2
    23    69    67    1
    24    68    66    1
    25    21    22   ar
    26    65    64    2
    27    26    27    2
    28    26    25    1
    29    66    67    1
    30    66    63    1
    31    44    45    1
    32    18    17    1
    33    18    24   am
    34    72    71    1
    35    72    73    2
    36    17    16    1
    37    25    24    1
    38    25    28    1
    39    64    63    1
    40    64    70   am
    41    76    75   ar
    42    71    70    1
    43    71    74    1
    44    63    62    1
    45    60    59    1
    46    59    61    1
    47    59    56    1
    48    45    47   am
    49    45    46    2
    50    16     9   am
    51    28    29    1
    52    47    48    1
    53    75    74    1
    54    75    77   ar
    55    85    86    1
    56    55    56    1
    57    55    49   am
    58    56    57    1
    59    57    58    2
    60     9    10    2
    61     9     8    1
    62    29    30    1
    63    34    32    1
    64    31    30    1
    65    31    32    2
    66    86    87    1
    67    48    51    1
    68    48    49    1
    69    51    52    1
    70    49    50    2
    71    92    91    2
    72    32    33    1
    73   107   105    1
    74    89    87   am
    75    89    90    1
    76     8    11    1
    77     8     7    1
    78   105   104    1
    79    11    12    1
    80    87    88    2
    81    91    90    1
    82    91   100   am
    83    53    52    1
    84     6     5    1
    85    52    54    1
    86    12    13    1
    87     4     3    2
    88    90    93    1
    89   106   104    1
    90     7     3   am
    91   104   101    1
    92   101   100    1
    93   101   102    1
    94     3     2    1
    95    93    94    1
    96    13    14   ar
    97    13    15   ar
    98     5     2    1
    99    95    94    1
   100    95    96    1
   101   102   103    2
   102    96    97    2
   103     2     1    1
   104    97    98    1
   105    97    99    1
