@<TRIPOS>MOLECULE
tmp/2jheC00.pdb
 118 116 0 0 0
SMALL
GASTEIGER

@<TRIPOS>ATOM
      1  N         -3.2960   -2.1560   63.7730 N.3     7  CYS7       -0.1221
      2  CA        -4.5560   -2.0100   63.0950 C.3     7  CYS7        0.1808
      3  C         -4.8970   -3.1060   62.0790 C.2     7  CYS7        0.2601
      4  O         -4.0490   -3.8840   61.6670 O.2     7  CYS7       -0.2717
      5  CB        -4.6820   -0.6070   62.5120 C.3     7  CYS7        0.0970
      6  SG        -3.2070    0.1300   61.7620 S.3     7  CYS7       -0.0800
      7  N         -6.1610   -3.1720   61.7070 N.am    8  GLU8       -0.1965
      8  CA        -6.5860   -4.0190   60.6030 C.3     8  GLU8        0.1733
      9  C         -6.1560   -3.3710   59.3010 C.2     8  GLU8        0.2616
     10  O         -5.9740   -2.1590   59.2120 O.2     8  GLU8       -0.2715
     11  CB        -8.1080   -4.2060   60.6120 C.3     8  GLU8        0.0429
     12  CG        -8.6630   -4.6610   61.9510 C.3     8  GLU8        0.1163
     13  CD       -10.1660   -4.4390   62.0870 C.2     8  GLU8        0.3649
     14  OE1      -10.8270   -4.1000   61.0670 O.co2   8  GLU8       -0.2457
     15  OE2      -10.6690   -4.5960   63.2220 O.co2   8  GLU8       -0.2457
     16  N         -5.9750   -4.1930   58.2930 N.am    9  ASP9       -0.1957
     17  CA        -5.8100   -3.6810   56.9490 C.3     9  ASP9        0.1840
     18  C         -7.1660   -3.0840   56.5380 C.2     9  ASP9        0.2622
     19  O         -8.0970   -3.8190   56.1450 O.2     9  ASP9       -0.2715
     20  CB        -5.4190   -4.8330   56.0000 C.3     9  ASP9        0.1450
     21  CG        -4.7740   -4.3460   54.7260 C.2     9  ASP9        0.3671
     22  OD1       -4.1210   -3.2770   54.7380 O.co2   9  ASP9       -0.2456
     23  OD2       -4.9080   -5.0450   53.7060 O.co2   9  ASP9       -0.2456
     24  N         -7.3070   -1.7700   56.6810 N.am   10  ARG10      -0.1963
     25  CA        -8.4650   -1.1050   56.1090 C.3    10  ARG10       0.1729
     26  C         -8.0900    0.2410   55.5540 C.2    10  ARG10       0.2616
     27  O         -7.2830    0.9530   56.1530 O.2    10  ARG10      -0.2715
     28  CB        -9.6860   -1.0620   57.0550 C.3    10  ARG10       0.0348
     29  CG        -9.7440    0.0390   58.0590 C.3    10  ARG10       0.0492
     30  CD       -11.1380    0.6840   58.0870 C.3    10  ARG10       0.2205
     31  NE       -12.2480    0.0050   58.7980 N.pl3  10  ARG10      -0.0865
     32  CZ       -12.2650   -1.2240   59.3420 C.cat  10  ARG10       0.5346
     33  NH1      -11.2170   -2.0530   59.2960 N.pl3  10  ARG10       0.1354
     34  NH2      -13.3720   -1.6370   59.9470 N.pl3  10  ARG10       0.1354
     35  N         -8.6340    0.5410   54.3730 N.am   11  LEU11      -0.1963
     36  CA        -8.4070    1.8010   53.6630 C.3    11  LEU11       0.1728
     37  C         -8.9670    2.9300   54.5010 C.2    11  LEU11       0.2617
     38  O        -10.0190    2.7820   55.1370 O.2    11  LEU11      -0.2715
     39  CB        -9.1360    1.7760   52.2860 C.3    11  LEU11       0.0311
     40  CG        -8.7670    0.6950   51.2590 C.3    11  LEU11       0.0022
     41  CD1       -9.6470    0.7570   49.9870 C.3    11  LEU11       0.0001
     42  CD2       -7.2760    0.7660   50.8750 C.3    11  LEU11       0.0001
     43  N         -8.3110    4.0680   54.4620 N.am   12  GLY12      -0.1940
     44  CA        -8.8050    5.2470   55.1480 C.3    12  GLY12       0.2014
     45  C         -8.2820    5.4660   56.5670 C.2    12  GLY12       0.2639
     46  O         -8.3950    6.5660   57.1010 O.2    12  GLY12      -0.2714
     47  N         -7.7830    4.4020   57.1900 N.am   13  LEU13      -0.1963
     48  CA        -7.3090    4.4540   58.5340 C.3    13  LEU13       0.1728
     49  C         -6.1990    5.5030   58.7910 C.2    13  LEU13       0.2617
     50  O         -6.2930    6.3170   59.7580 O.2    13  LEU13      -0.2715
     51  CB        -6.8560    3.0560   58.9570 C.3    13  LEU13       0.0311
     52  CG        -6.7740    2.8510   60.4890 C.3    13  LEU13       0.0022
     53  CD1       -7.1600    1.4320   60.8320 C.3    13  LEU13       0.0001
     54  CD2       -5.3680    3.2140   61.0260 C.3    13  LEU13       0.0001
     55  N         -5.1820    5.4760   57.9550 N.am   14  THR14      -0.1937
     56  CA        -3.9660    6.2780   58.1170 C.3    14  THR14       0.2028
     57  C         -4.2390    7.7610   58.0720 C.2    14  THR14       0.2642
     58  O         -3.7600    8.4910   58.9170 O.2    14  THR14      -0.2714
     59  CB        -2.8570    5.8720   57.0810 C.3    14  THR14       0.1808
     60  OG1       -2.4570    4.5380   57.3770 O.3    14  THR14      -0.2208
     61  CG2       -1.6200    6.7600   57.2140 C.3    14  THR14       0.0379
     62  N         -5.0700    8.1540   57.1140 N.am   15  ARG15      -0.1977
     63  CA        -5.5260    9.5090   56.9040 C.3    15  ARG15       0.1597
     64  C         -6.3740    9.9710   58.0780 C.2    15  ARG15       0.2287
     65  O         -6.2310   11.0940   58.5260 O.2    15  ARG15      -0.2864
     66  CB        -6.3550    9.5560   55.6190 C.3    15  ARG15       0.0334
     67  CG        -6.9230   10.9420   55.2890 C.3    15  ARG15       0.0492
     68  CD        -7.8360   10.9260   54.0640 C.3    15  ARG15       0.2205
     69  NE        -7.8140   12.2200   53.4040 N.pl3  15  ARG15      -0.0865
     70  CZ        -8.7370   13.1610   53.5570 C.cat  15  ARG15       0.5346
     71  NH1       -9.7770   12.9540   54.3510 N.pl3  15  ARG15       0.1354
     72  NH2       -8.6140   14.3060   52.9220 N.pl3  15  ARG15       0.1354
     73  N          5.0710    2.9530   58.2800 N.3    33  ILE33      -0.1231
     74  CA         4.0640    1.8890   58.1500 C.3    33  ILE33       0.1692
     75  C          4.7360    0.5300   57.9900 C.2    33  ILE33       0.2592
     76  O          5.5110    0.2900   57.0610 O.2    33  ILE33      -0.2718
     77  CB         3.0010    2.1190   56.9740 C.3    33  ILE33       0.0266
     78  CG1        2.0380    3.2790   57.2420 C.3    33  ILE33       0.0019
     79  CG2        2.0860    0.8450   56.7920 C.3    33  ILE33       0.0020
     80  CD1        2.6470    4.6410   57.3540 C.3    33  ILE33       0.0001
     81  N          4.4190   -0.3530   58.9220 N.am   34  ASP34      -0.1960
     82  CA         4.7610   -1.7660   58.8370 C.3    34  ASP34       0.1825
     83  C          3.6170   -2.5180   58.1150 C.2    34  ASP34       0.2464
     84  O          2.4410   -2.3940   58.5060 O.2    34  ASP34      -0.2730
     85  CB         4.9800   -2.2930   60.2680 C.3    34  ASP34       0.1450
     86  CG         5.5010   -3.7040   60.3110 C.2    34  ASP34       0.3671
     87  OD1        5.0210   -4.5570   59.5260 O.co2  34  ASP34      -0.2456
     88  OD2        6.3910   -3.9700   61.1500 O.co2  34  ASP34      -0.2456
     89  N          3.9430   -3.2900   57.0510 N.am   35  PRO35      -0.2727
     90  CA         2.9120   -4.0900   56.3500 C.3    35  PRO35       0.1402
     91  C          2.0720   -5.0220   57.2550 C.2    35  PRO35       0.2269
     92  O          0.8490   -5.0880   57.0940 O.2    35  PRO35      -0.2865
     93  CB         3.7250   -4.9250   55.3410 C.3    35  PRO35       0.0296
     94  CG         4.9930   -4.1720   55.1470 C.3    35  PRO35       0.0237
     95  CD         5.2810   -3.4540   56.4400 C.3    35  PRO35       0.0939
     96  N          0.6500   -4.7760   59.8580 N.3    37  GLY37      -0.1210
     97  CA        -0.4950   -4.1260   60.5170 C.3    37  GLY37       0.1956
     98  C         -0.1680   -3.1290   61.6120 C.2    37  GLY37       0.2612
     99  O         -0.8860   -3.0490   62.6130 O.2    37  GLY37      -0.2717
    100  N          0.9130   -2.3680   61.4250 N.am   38  ARG38      -0.1965
    101  CA         1.4100   -1.4260   62.4460 C.3    38  ARG38       0.1729
    102  C          1.8230   -0.0920   61.8450 C.2    38  ARG38       0.2616
    103  O          2.5330   -0.0470   60.8490 O.2    38  ARG38      -0.2715
    104  CB         2.6050   -1.9970   63.2210 C.3    38  ARG38       0.0348
    105  CG         2.6980   -3.5170   63.2690 C.3    38  ARG38       0.0492
    106  CD         2.1450   -4.0710   64.5500 C.3    38  ARG38       0.2205
    107  NE         2.4840   -5.4880   64.6860 N.pl3  38  ARG38      -0.0865
    108  CZ         1.7420   -6.4930   64.2100 C.cat  38  ARG38       0.5346
    109  NH1        0.5960   -6.2570   63.5700 N.pl3  38  ARG38       0.1354
    110  NH2        2.1440   -7.7450   64.3830 N.pl3  38  ARG38       0.1354
    111  N          1.3870    0.9900   62.4860 N.am   39  ILE39      -0.1977
    112  CA         1.8750    2.3550   62.2120 C.3    39  ILE39       0.1596
    113  C          2.7230    2.8890   63.4110 C.2    39  ILE39       0.2287
    114  O          2.3570    2.7200   64.5830 O.2    39  ILE39      -0.2864
    115  CB         0.6720    3.2880   61.9520 C.3    39  ILE39       0.0276
    116  CG1       -0.1970    2.7310   60.7750 C.3    39  ILE39       0.0022
    117  CG2        1.1510    4.6910   61.6910 C.3    39  ILE39       0.0022
    118  CD1       -1.4510    3.5280   60.4600 C.3    39  ILE39       0.0001
@<TRIPOS>BOND
     1    41    40    1
     2    42    40    1
     3    40    39    1
     4    39    36    1
     5    72    70    1
     6    69    70    2
     7    69    68    1
     8    70    71    1
     9    36    35    1
    10    36    37    1
    11    23    21   ar
    12    68    67    1
    13    35    26   am
    14    43    37   am
    15    43    44    1
    16    37    38    2
    17    21    22   ar
    18    21    20    1
    19    94    93    1
    20    94    95    1
    21    44    45    1
    22    67    66    1
    23    93    90    1
    24    26    25    1
    25    26    27    2
    26    66    63    1
    27    20    17    1
    28    25    24    1
    29    25    28    1
    30    19    18    2
    31    90    89    1
    32    90    91    1
    33    95    89    1
    34    18    24   am
    35    18    17    1
    36    45    46    2
    37    45    47   am
    38    79    77    1
    39    63    62    1
    40    63    64    1
    41    17    16    1
    42    77    78    1
    43    77    74    1
    44    89    83   am
    45    28    29    1
    46    76    75    2
    47    59    61    1
    48    59    60    1
    49    59    56    1
    50    92    91    2
    51    62    57   am
    52    47    48    1
    53    78    80    1
    54    55    56    1
    55    55    49   am
    56    75    74    1
    57    75    81   am
    58    29    30    1
    59    57    56    1
    60    57    58    2
    61    64    65    2
    62    30    31    1
    63    83    84    2
    64    83    82    1
    65    74    73    1
    66    16     9   am
    67    48    49    1
    68    48    51    1
    69    49    50    2
    70    31    32    2
    71    82    81    1
    72    82    85    1
    73    51    52    1
    74    10     9    2
    75    33    32    1
    76     9     8    1
    77    32    34    1
    78    87    86   ar
    79    96    97    1
    80    85    86    1
    81    86    88   ar
    82   118   116    1
    83    52    53    1
    84    52    54    1
    85    97    98    1
    86     8    11    1
    87     8     7    1
    88    11    12    1
    89   116   115    1
    90   103   102    2
    91    14    13   ar
    92   100    98   am
    93   100   101    1
    94    98    99    2
    95     4     3    2
    96   117   115    1
    97     7     3   am
    98     6     5    1
    99   102   101    1
   100   102   111   am
   101    12    13    1
   102   115   112    1
   103     3     2    1
   104    13    15   ar
   105   112   111    1
   106   112   113    1
   107   101   104    1
   108     5     2    1
   109     2     1    1
   110   104   105    1
   111   105   106    1
   112   113   114    2
   113   109   108    1
   114   108   110    1
   115   108   107    2
   116   106   107    1
