@<TRIPOS>MOLECULE
tmp/2jhgA00.pdb
 211 201 0 0 0
SMALL
GASTEIGER

@<TRIPOS>ATOM
      1  N         -7.3120   -6.1820  -25.6660 N.3    46  CYS46      -0.1221
      2  CA        -7.2310   -5.9950  -24.2390 C.3    46  CYS46       0.1808
      3  C         -8.2970   -4.9660  -23.8610 C.2    46  CYS46       0.2601
      4  O         -8.5620   -4.0240  -24.6000 O.2    46  CYS46      -0.2717
      5  CB        -5.8180   -5.5270  -23.8880 C.3    46  CYS46       0.0970
      6  SG        -5.6040   -5.0240  -22.1300 S.3    46  CYS46      -0.0800
      7  N         -8.8480   -5.0810  -22.6580 N.am   47  ARG47      -0.1965
      8  CA        -9.7910   -4.0920  -22.1920 C.3    47  ARG47       0.1729
      9  C         -9.2230   -2.6930  -22.2380 C.2    47  ARG47       0.2616
     10  O         -9.9460   -1.7350  -22.4580 O.2    47  ARG47      -0.2715
     11  CB       -10.3380   -4.4310  -20.8210 C.3    47  ARG47       0.0348
     12  CG       -11.3270   -3.4320  -20.2100 C.3    47  ARG47       0.0492
     13  CD       -12.5710   -3.1990  -20.9780 C.3    47  ARG47       0.2205
     14  NE       -13.3900   -4.3660  -20.9090 N.pl3  47  ARG47      -0.0865
     15  CZ       -14.6630   -4.3790  -21.2950 C.cat  47  ARG47       0.5346
     16  NH1      -15.1740   -3.3380  -21.9290 N.pl3  47  ARG47       0.1354
     17  NH2      -15.4180   -5.4460  -21.0650 N.pl3  47  ARG47       0.1354
     18  N         -7.9210   -2.5340  -22.0590 N.am   48  SER48      -0.1950
     19  CA        -7.3450   -1.1800  -22.1200 C.3    48  SER48       0.1924
     20  C         -7.4670   -0.5470  -23.4850 C.2    48  SER48       0.2314
     21  O         -7.5760    0.6790  -23.5700 O.2    48  SER48      -0.2863
     22  CB        -5.9040   -1.1620  -21.7210 C.3    48  SER48       0.2116
     23  OG        -5.7460   -1.6360  -20.4080 O.3    48  SER48      -0.2180
     24  N        -10.7020    0.9070  -23.3010 N.3    51  HIS51      -0.1241
     25  CA       -10.6880    2.1010  -22.4830 C.3    51  HIS51       0.1621
     26  C        -10.3020    3.3270  -23.2970 C.2    51  HIS51       0.2264
     27  O        -10.6920    4.4290  -22.9680 O.2    51  HIS51      -0.2867
     28  CB        -9.7010    1.9660  -21.3060 C.3    51  HIS51       0.0745
     29  CG       -10.1030    1.0130  -20.2410 C.ar   51  HIS51       0.0817
     30  ND1      -11.3920    0.6280  -19.9800 N.ar   51  HIS51      -0.2268
     31  CD2       -9.3320    0.4200  -19.3050 C.ar   51  HIS51       0.1154
     32  CE1      -11.3930   -0.1760  -18.9280 C.ar   51  HIS51       0.1986
     33  NE2      -10.1510   -0.3160  -18.4940 N.ar   51  HIS51      -0.2212
     34  N          4.7920   -2.2660  -24.4060 N.3    93  PHE93      -0.1241
     35  CA         4.0580   -1.0460  -24.0760 C.3    93  PHE93       0.1605
     36  C          4.6400   -0.2980  -22.9130 C.2    93  PHE93       0.2264
     37  O          4.3870    0.8840  -22.7400 O.2    93  PHE93      -0.2867
     38  CB         2.5750   -1.2870  -23.9030 C.3    93  PHE93       0.0534
     39  CG         2.1920   -1.9520  -22.6140 C.ar   93  PHE93      -0.0203
     40  CD1        2.1210   -1.2150  -21.4700 C.ar   93  PHE93      -0.0042
     41  CD2        1.9430   -3.2980  -22.5440 C.ar   93  PHE93      -0.0042
     42  CE1        1.8530   -1.8110  -20.2620 C.ar   93  PHE93      -0.0003
     43  CE2        1.6330   -3.8990  -21.3320 C.ar   93  PHE93      -0.0003
     44  CZ         1.6290   -3.1700  -20.2000 C.ar   93  PHE93      -0.0000
     45  N          0.8220   -8.3210  -23.0290 N.3   174  CYS174     -0.1235
     46  CA         0.0810   -7.5510  -22.0260 C.3   174  CYS174      0.1677
     47  C         -0.6230   -8.4310  -21.0250 C.2   174  CYS174      0.2270
     48  O         -0.1850   -8.5570  -19.8720 O.2   174  CYS174     -0.2867
     49  CB        -0.8870   -6.5360  -22.6580 C.3   174  CYS174      0.0956
     50  SG        -1.6310   -5.5910  -21.2730 S.3   174  CYS174     -0.0801
     51  N          0.8510   -9.4340  -17.2730 N.3   178  THR178     -0.1218
     52  CA         0.3380   -8.5450  -16.2500 C.3   178  THR178      0.1862
     53  C         -0.2730   -9.3520  -15.1230 C.2   178  THR178      0.2287
     54  O          0.0140   -9.1450  -13.9570 O.2   178  THR178     -0.2866
     55  CB        -0.6850   -7.5830  -16.8530 C.3   178  THR178      0.1770
     56  OG1       -0.0200   -6.7280  -17.7900 O.3   178  THR178     -0.2211
     57  CG2       -1.3060   -6.7540  -15.7890 C.3   178  THR178      0.0375
     58  N        -12.5200   -9.6910  -10.8760 N.3   199  GLY199     -0.1210
     59  CA       -12.4860   -9.5920  -12.3250 C.3   199  GLY199      0.1956
     60  C        -11.8630  -10.8030  -12.9400 C.2   199  GLY199      0.2612
     61  O        -10.6920  -11.1090  -12.7030 O.2   199  GLY199     -0.2717
     62  N        -12.6420  -11.4910  -13.7910 N.am  200  LEU200     -0.1965
     63  CA       -12.2790  -12.7720  -14.3570 C.3   200  LEU200      0.1728
     64  C        -12.1710  -12.7460  -15.8630 C.2   200  LEU200      0.2617
     65  O        -12.5090  -13.6930  -16.5620 O.2   200  LEU200     -0.2715
     66  CB       -13.2360  -13.8650  -13.8470 C.3   200  LEU200      0.0311
     67  CG       -13.2920  -13.9770  -12.3150 C.3   200  LEU200      0.0022
     68  CD1      -14.3140  -15.0090  -11.9220 C.3   200  LEU200      0.0001
     69  CD2      -11.9720  -14.3580  -11.7310 C.3   200  LEU200      0.0001
     70  N        -11.6680  -11.6220  -16.3680 N.am  201  GLY201     -0.1940
     71  CA       -11.2650  -11.5170  -17.7490 C.3   201  GLY201      0.2014
     72  C         -9.9030  -12.0670  -17.9960 C.2   201  GLY201      0.2639
     73  O         -9.3300  -12.7970  -17.1610 O.2   201  GLY201     -0.2714
     74  N         -9.2870  -11.7720  -19.1510 N.am  202  GLY202     -0.1939
     75  CA        -8.0130  -12.3510  -19.4780 C.3   202  GLY202      0.2014
     76  C         -7.0000  -12.0580  -18.4070 C.2   202  GLY202      0.2639
     77  O         -6.1700  -12.9150  -18.0970 O.2   202  GLY202     -0.2714
     78  N         -6.9600  -10.8330  -17.8980 N.am  203  VAL203     -0.1963
     79  CA        -5.9600  -10.4710  -16.9000 C.3   203  VAL203      0.1727
     80  C         -6.2190  -11.1870  -15.5710 C.2   203  VAL203      0.2616
     81  O         -5.3170  -11.7500  -14.9730 O.2   203  VAL203     -0.2715
     82  CB        -5.8060   -8.9710  -16.7850 C.3   203  VAL203      0.0290
     83  CG1       -4.6690   -8.6240  -15.8400 C.3   203  VAL203      0.0023
     84  CG2       -5.5620   -8.3550  -18.1290 C.3   203  VAL203      0.0023
     85  N         -7.4650  -11.1990  -15.1230 N.am  204  GLY204     -0.1955
     86  CA        -7.8060  -11.9000  -13.8790 C.3   204  GLY204      0.1869
     87  C         -7.5590  -13.3800  -13.9540 C.2   204  GLY204      0.2309
     88  O         -7.0970  -13.9740  -12.9710 O.2   204  GLY204     -0.2863
     89  N        -16.7520  -11.9850   -9.7290 N.3   223  ASP223     -0.1225
     90  CA       -17.1940  -11.3360  -10.9680 C.3   223  ASP223      0.1805
     91  C        -18.6860  -11.2110  -10.9010 C.2   223  ASP223      0.2598
     92  O        -19.3690  -12.0980  -10.3740 O.2   223  ASP223     -0.2718
     93  CB       -16.7380  -12.1180  -12.2060 C.3   223  ASP223      0.1424
     94  CG       -16.6220  -11.2500  -13.4680 C.2   223  ASP223      0.3668
     95  OD1      -17.6500  -10.6560  -13.8600 O.co2 223  ASP223     -0.2456
     96  OD2      -15.4950  -11.2030  -14.0210 O.co2 223  ASP223     -0.2456
     97  N        -19.2280  -10.1190  -11.4500 N.am  224  ILE224     -0.1966
     98  CA       -20.6780   -9.9640  -11.5950 C.3   224  ILE224      0.1727
     99  C        -21.2640  -10.7080  -12.7730 C.2   224  ILE224      0.2616
    100  O        -22.5010  -10.7650  -12.8810 O.2   224  ILE224     -0.2715
    101  CB       -21.0760   -8.4940  -11.6360 C.3   224  ILE224      0.0290
    102  CG1      -20.4000   -7.7370  -12.7820 C.3   224  ILE224      0.0022
    103  CG2      -20.8200   -7.8470  -10.3360 C.3   224  ILE224      0.0023
    104  CD1      -20.9600   -6.3280  -13.0580 C.3   224  ILE224      0.0001
    105  N        -20.4280  -11.2640  -13.6410 N.am  225  ASN225     -0.1972
    106  CA       -20.8580  -12.0610  -14.7660 C.3   225  ASN225      0.1688
    107  C        -20.5290  -13.5250  -14.4600 C.2   225  ASN225      0.2292
    108  O        -19.3880  -13.9680  -14.5950 O.2   225  ASN225     -0.2864
    109  CB       -20.1560  -11.6170  -16.0410 C.3   225  ASN225      0.1181
    110  CG       -20.6230  -12.3910  -17.2410 C.2   225  ASN225      0.2629
    111  OD1      -21.4120  -13.3460  -17.1000 O.2   225  ASN225     -0.2716
    112  ND2      -20.1670  -12.0020  -18.4180 N.am  225  ASN225     -0.0877
    113  N        -18.3770  -16.1430  -16.3840 N.3   228  LYS228     -0.1245
    114  CA       -16.9310  -16.1810  -16.2890 C.3   228  LYS228      0.1561
    115  C        -16.4360  -17.2360  -15.3390 C.2   228  LYS228      0.2260
    116  O        -15.2380  -17.5110  -15.3010 O.2   228  LYS228     -0.2867
    117  CB       -16.4460  -14.8090  -15.8200 C.3   228  LYS228      0.0271
    118  CG       -16.8150  -13.6240  -16.6870 C.3   228  LYS228      0.0035
    119  CD       -16.0780  -13.5410  -17.9530 C.3   228  LYS228      0.0206
    120  CE       -16.7090  -12.5420  -18.9330 C.3   228  LYS228      0.1093
    121  NZ       -15.9250  -12.4950  -20.2240 N.3   228  LYS228     -0.1314
    122  N         -8.8290   -6.4140  -10.5790 N.3   268  VAL268     -0.1231
    123  CA        -8.5130   -6.6590  -11.9730 C.3   268  VAL268      0.1692
    124  C         -9.7070   -6.3030  -12.8590 C.2   268  VAL268      0.2591
    125  O        -10.0730   -6.9920  -13.8080 O.2   268  VAL268     -0.2718
    126  CB        -8.0310   -8.1280  -12.2150 C.3   268  VAL268      0.0266
    127  CG1       -7.1230   -8.1360  -13.4180 C.3   268  VAL268      0.0020
    128  CG2       -7.2890   -8.6840  -11.0240 C.3   268  VAL268      0.0020
    129  N        -10.2790   -5.1540  -12.5220 N.am  269  ILE269     -0.1980
    130  CA       -11.4820   -4.6310  -13.1670 C.3   269  ILE269      0.1595
    131  C        -11.2260   -3.2250  -13.7020 C.2   269  ILE269      0.2287
    132  O        -11.3390   -2.9830  -14.9030 O.2   269  ILE269     -0.2864
    133  CB       -12.7190   -4.6370  -12.2530 C.3   269  ILE269      0.0276
    134  CG1      -13.0160   -6.0270  -11.7010 C.3   269  ILE269      0.0022
    135  CG2      -13.9210   -4.0890  -12.9980 C.3   269  ILE269      0.0022
    136  CD1      -13.8440   -5.9780  -10.4480 C.3   269  ILE269      0.0001
    137  N         -4.5890   -3.7830  -10.1790 N.3   292  VAL292     -0.1231
    138  CA        -4.2000   -4.0750  -11.5570 C.3   292  VAL292      0.1692
    139  C         -5.1130   -3.3010  -12.5240 C.2   292  VAL292      0.2593
    140  O         -4.6230   -2.8140  -13.5740 O.2   292  VAL292     -0.2718
    141  CB        -4.2820   -5.5780  -11.8580 C.3   292  VAL292      0.0266
    142  CG1       -3.7130   -5.8600  -13.2300 C.3   292  VAL292      0.0020
    143  CG2       -3.5190   -6.3660  -10.8020 C.3   292  VAL292      0.0020
    144  N         -6.3830   -3.1650  -12.2420 N.am  293  GLY293     -0.1942
    145  CA        -7.2790   -2.5040  -13.1720 C.3   293  GLY293      0.2014
    146  C         -6.9610   -1.0410  -13.4050 C.2   293  GLY293      0.2638
    147  O         -6.4760   -0.3500  -12.5230 O.2   293  GLY293     -0.2714
    148  N         -7.2170   -0.6140  -14.6390 N.am  294  VAL294     -0.1977
    149  CA        -7.0520    0.7620  -15.0530 C.3   294  VAL294      0.1596
    150  C         -8.3580    1.4800  -14.8020 C.2   294  VAL294      0.2287
    151  O         -9.3750    1.1560  -15.3450 O.2   294  VAL294     -0.2864
    152  CB        -6.7260    0.8790  -16.5430 C.3   294  VAL294      0.0276
    153  CG1       -6.8610    2.3410  -17.0240 C.3   294  VAL294      0.0022
    154  CG2       -5.3250    0.3530  -16.8210 C.3   294  VAL294      0.0022
    155  N          0.6240   -2.0890   -9.9170 N.3   317  ALA317     -0.1231
    156  CA         1.7280   -2.2890  -10.8410 C.3   317  ALA317      0.1694
    157  C          1.2170   -2.2570  -12.2660 C.2   317  ALA317      0.2592
    158  O          0.0720   -2.5740  -12.5500 O.2   317  ALA317     -0.2718
    159  CB         2.4300   -3.6180  -10.5950 C.3   317  ALA317      0.0304
    160  N          2.1650   -1.9130  -13.1310 N.am  318  ILE318     -0.1966
    161  CA         2.0220   -2.0230  -14.5710 C.3   318  ILE318      0.1727
    162  C          2.7390   -3.2640  -15.0440 C.2   318  ILE318      0.2616
    163  O          3.8550   -3.5710  -14.6070 O.2   318  ILE318     -0.2715
    164  CB         2.5830   -0.7730  -15.2780 C.3   318  ILE318      0.0290
    165  CG1        1.8820    0.5070  -14.7740 C.3   318  ILE318      0.0022
    166  CG2        2.4950   -0.9020  -16.7650 C.3   318  ILE318      0.0023
    167  CD1        0.4170    0.5430  -15.0290 C.3   318  ILE318      0.0001
    168  N          2.1250   -4.0370  -15.9240 N.am  319  PHE319     -0.1974
    169  CA         2.7550   -5.1760  -16.5820 C.3   319  PHE319      0.1639
    170  C          3.2720   -6.1650  -15.5750 C.2   319  PHE319      0.2290
    171  O          4.3140   -6.7970  -15.8110 O.2   319  PHE319     -0.2864
    172  CB         3.8270   -4.7300  -17.5600 C.3   319  PHE319      0.0560
    173  CG         4.2360   -5.7650  -18.5860 C.ar  319  PHE319     -0.0200
    174  CD1        3.2960   -6.3800  -19.3970 C.ar  319  PHE319     -0.0042
    175  CD2        5.5490   -6.0540  -18.7880 C.ar  319  PHE319     -0.0042
    176  CE1        3.6560   -7.2910  -20.3580 C.ar  319  PHE319     -0.0003
    177  CE2        5.9250   -6.9640  -19.7720 C.ar  319  PHE319     -0.0003
    178  CZ         4.9940   -7.5710  -20.5490 C.ar  319  PHE319     -0.0000
    179  N        -16.0100   -8.4110  -26.7230 N.3   362  LEU362     -0.1245
    180  CA       -15.5140   -8.0180  -25.3990 C.3   362  LEU362      0.1561
    181  C        -16.5910   -7.3040  -24.6380 C.2   362  LEU362      0.2260
    182  O        -16.9020   -7.6080  -23.4580 O.2   362  LEU362     -0.2867
    183  CB       -14.2650   -7.1400  -25.5470 C.3   362  LEU362      0.0270
    184  CG       -13.6750   -6.7120  -24.2120 C.3   362  LEU362      0.0019
    185  CD1      -13.0320   -7.8920  -23.4660 C.3   362  LEU362      0.0001
    186  CD2      -12.7050   -5.5740  -24.4260 C.3   362  LEU362      0.0001
    187  N        -16.4040  -12.7270  -24.6310 N.3   367  SER367     -0.1202
    188  CA       -15.0480  -13.1530  -24.8560 C.3   367  SER367      0.2020
    189  C        -14.1950  -12.9280  -23.6350 C.2   367  SER367      0.2619
    190  O        -14.4810  -12.1320  -22.7600 O.2   367  SER367     -0.2717
    191  CB       -14.4520  -12.4170  -26.0430 C.3   367  SER367      0.2103
    192  OG       -14.4950  -11.0440  -25.7600 O.3   367  SER367     -0.2182
    193  N        -13.0890  -13.6560  -23.6420 N.am  368  ILE368     -0.1965
    194  CA       -11.9300  -13.3450  -22.7970 C.3   368  ILE368      0.1727
    195  C        -10.9840  -12.6100  -23.7080 C.2   368  ILE368      0.2616
    196  O        -11.0800  -11.3900  -23.8260 O.2   368  ILE368     -0.2715
    197  CB       -11.3660  -14.6010  -22.1270 C.3   368  ILE368      0.0290
    198  CG1      -12.4210  -15.2080  -21.2190 C.3   368  ILE368      0.0022
    199  CG2      -10.0860  -14.3160  -21.3590 C.3   368  ILE368      0.0023
    200  CD1      -12.7810  -14.3650  -20.0480 C.3   368  ILE368      0.0001
    201  N        -10.1290  -13.3200  -24.4400 N.am  369  ARG369     -0.1977
    202  CA        -9.3160  -12.7100  -25.4620 C.3   369  ARG369      0.1597
    203  C         -9.7230  -13.1840  -26.8420 C.2   369  ARG369      0.2287
    204  O         -9.7960  -14.3960  -27.1260 O.2   369  ARG369     -0.2864
    205  CB        -7.8220  -12.9840  -25.2600 C.3   369  ARG369      0.0334
    206  CG        -7.2250  -12.1630  -24.1240 C.3   369  ARG369      0.0492
    207  CD        -7.2370  -10.6930  -24.4370 C.3   369  ARG369      0.2205
    208  NE        -6.2940   -9.8910  -23.6910 N.pl3 369  ARG369     -0.0865
    209  CZ        -6.5990   -9.1990  -22.6010 C.cat 369  ARG369      0.5346
    210  NH1       -7.7850   -9.2510  -22.0170 N.pl3 369  ARG369      0.1354
    211  NH2       -5.6120   -8.4280  -22.1040 N.pl3 369  ARG369      0.1354
@<TRIPOS>BOND
     1   204   203    2
     2   203   202    1
     3   179   180    1
     4   191   192    1
     5   191   188    1
     6     1     2    1
     7   183   180    1
     8   183   184    1
     9   202   205    1
    10   202   201    1
    11   180   181    1
    12   205   206    1
    13   188   187    1
    14   188   189    1
    15   181   182    2
    16     4     3    2
    17   201   195   am
    18   207   206    1
    19   207   208    1
    20   186   184    1
    21    34    35    1
    22     2     5    1
    23     2     3    1
    24   184   185    1
    25    35    38    1
    26    35    36    1
    27    38    39    1
    28     5     6    1
    29     3     7   am
    30   196   195    2
    31   195   194    1
    32   208   209    2
    33   193   189   am
    34   193   194    1
    35   189   190    2
    36    21    20    2
    37    20    19    1
    38    24    25    1
    39    26    27    2
    40    26    25    1
    41    45    46    1
    42    36    37    2
    43   194   197    1
    44    49    46    1
    45    49    50    1
    46     7     8    1
    47    39    41   ar
    48    39    40   ar
    49   209   211    1
    50   209   210    1
    51    41    43   ar
    52    25    28    1
    53    10     9    2
    54     9     8    1
    55     9    18   am
    56     8    11    1
    57   197   199    1
    58   197   198    1
    59    19    18    1
    60    19    22    1
    61    46    47    1
    62    16    15    1
    63    22    23    1
    64    40    42   ar
    65    43    44   ar
    66    28    29    1
    67    15    17    1
    68    15    14    2
    69   198   200    1
    70    47    48    2
    71    13    14    1
    72    13    12    1
    73    11    12    1
    74   178   176   ar
    75   178   177   ar
    76   176   174   ar
    77    42    44   ar
    78    29    30   ar
    79    29    31   ar
    80   121   120    1
    81    30    32   ar
    82   177   175   ar
    83    75    74    1
    84    75    76    1
    85   174   173   ar
    86    31    33   ar
    87    74    72   am
    88   120   119    1
    89    32    33   ar
    90   175   173   ar
    91   173   172    1
    92   112   110   am
    93    76    77    2
    94    76    78   am
    95    84    82    1
    96    72    71    1
    97    72    73    2
    98   119   118    1
    99    78    79    1
   100    56    55    1
   101    71    70    1
   102   172   169    1
   103    51    52    1
   104   110   111    2
   105   110   109    1
   106   153   152    1
   107    79    82    1
   108    79    80    1
   109    55    52    1
   110    55    57    1
   111   154   152    1
   112    82    83    1
   113   166   164    1
   114   118   117    1
   115   169   168    1
   116   169   170    1
   117    65    64    2
   118   152   149    1
   119   113   114    1
   120    70    64   am
   121   114   117    1
   122   114   115    1
   123    52    53    1
   124   109   106    1
   125   168   162   am
   126    64    63    1
   127   171   170    2
   128    80    85   am
   129    80    81    2
   130   151   150    2
   131   115   116    2
   132   164   165    1
   133   164   161    1
   134    85    86    1
   135    53    54    2
   136   149   150    1
   137   149   148    1
   138   162   163    2
   139   162   161    1
   140   167   165    1
   141   132   131    2
   142   106   107    1
   143   106   105    1
   144   148   146   am
   145   108   107    2
   146   161   160    1
   147    63    66    1
   148    63    62    1
   149    96    94   ar
   150    87    86    1
   151    87    88    2
   152    95    94   ar
   153    66    67    1
   154   125   124    2
   155    62    60   am
   156   131   130    1
   157   105    99   am
   158   140   139    2
   159    94    93    1
   160   127   126    1
   161   146   145    1
   162   146   147    2
   163   142   141    1
   164   145   144    1
   165   130   129    1
   166   130   133    1
   167   160   157   am
   168   104   102    1
   169   135   133    1
   170    60    61    2
   171    60    59    1
   172   100    99    2
   173   124   129   am
   174   124   123    1
   175   102   101    1
   176    99    98    1
   177   158   157    2
   178   139   144   am
   179   139   138    1
   180    59    58    1
   181    67    68    1
   182    67    69    1
   183   157   156    1
   184   133   134    1
   185   126   123    1
   186   126   128    1
   187    93    90    1
   188   123   122    1
   189   141   138    1
   190   141   143    1
   191   134   136    1
   192   101    98    1
   193   101   103    1
   194    98    97    1
   195   138   137    1
   196    97    91   am
   197    90    91    1
   198    90    89    1
   199    91    92    2
   200   156   159    1
   201   156   155    1
