@<TRIPOS>MOLECULE
tmp/2jhpA01.pdb
 201 198 0 0 0
SMALL
GASTEIGER

@<TRIPOS>ATOM
      1  N         69.2500   29.3630  208.7110 N.3   178  LEU178     -0.1245
      2  CA        68.1190   30.1620  208.2280 C.3   178  LEU178      0.1561
      3  C         68.4090   31.1480  207.0820 C.2   178  LEU178      0.2260
      4  O         67.4960   31.4720  206.3140 O.2   178  LEU178     -0.2867
      5  CB        67.3780   30.8300  209.4010 C.3   178  LEU178      0.0270
      6  CG        66.3900   29.8770  210.1020 C.3   178  LEU178      0.0019
      7  CD1       65.9630   30.3630  211.5080 C.3   178  LEU178      0.0001
      8  CD2       65.1650   29.5850  209.2100 C.3   178  LEU178      0.0001
      9  N         56.6830   35.5850  203.3740 N.3   194  TYR194     -0.1227
     10  CA        57.4830   34.9120  204.3980 C.3   194  TYR194      0.1736
     11  C         56.7570   34.9770  205.7360 C.2   194  TYR194      0.2595
     12  O         56.8100   35.9860  206.4390 O.2   194  TYR194     -0.2718
     13  CB        58.8660   35.5800  204.4930 C.3   194  TYR194      0.0548
     14  CG        59.9350   34.8730  205.3170 C.ar  194  TYR194     -0.0200
     15  CD1       59.6450   33.7640  206.1070 C.ar  194  TYR194     -0.0009
     16  CD2       61.2440   35.3510  205.3230 C.ar  194  TYR194     -0.0009
     17  CE1       60.6380   33.1340  206.8590 C.ar  194  TYR194      0.0417
     18  CE2       62.2430   34.7370  206.0770 C.ar  194  TYR194      0.0417
     19  CZ        61.9350   33.6300  206.8400 C.ar  194  TYR194      0.1957
     20  OH        62.9210   33.0140  207.5820 O.3   194  TYR194     -0.2866
     21  N         56.0750   33.8840  206.0620 N.am  195  ILE195     -0.1966
     22  CA        55.2880   33.7620  207.2830 C.3   195  ILE195      0.1727
     23  C         56.1700   33.1810  208.3780 C.2   195  ILE195      0.2617
     24  O         56.8100   32.1430  208.1800 O.2   195  ILE195     -0.2715
     25  CB        54.0600   32.7900  207.1220 C.3   195  ILE195      0.0290
     26  CG1       53.5520   32.6800  205.6630 C.3   195  ILE195      0.0022
     27  CG2       52.9760   33.1250  208.1410 C.3   195  ILE195      0.0023
     28  CD1       52.7550   33.8470  205.1500 C.3   195  ILE195      0.0001
     29  N         56.1750   33.8330  209.5360 N.am  196  GLY196     -0.1940
     30  CA        57.0190   33.4180  210.6480 C.3   196  GLY196      0.2014
     31  C         58.4290   33.9390  210.4580 C.2   196  GLY196      0.2639
     32  O         59.4040   33.2400  210.7480 O.2   196  GLY196     -0.2714
     33  N         58.5310   35.1760  209.9760 N.am  197  CYS197     -0.1953
     34  CA        59.8200   35.7860  209.6380 C.3   197  CYS197      0.1843
     35  C         60.7220   36.0850  210.8450 C.2   197  CYS197      0.2626
     36  O         61.9360   36.2640  210.6900 O.2   197  CYS197     -0.2714
     37  CB        59.6130   37.0490  208.7870 C.3   197  CYS197      0.0997
     38  SG        58.6160   38.3630  209.5610 S.3   197  CYS197     -0.0797
     39  N         60.1340   36.1490  212.0340 N.am  198  GLY198     -0.1940
     40  CA        60.8960   36.4390  213.2450 C.3   198  GLY198      0.2014
     41  C         61.3220   37.8940  213.3520 C.2   198  GLY198      0.2639
     42  O         60.5520   38.7960  213.0150 O.2   198  GLY198     -0.2714
     43  N         62.5520   38.1170  213.8160 N.am  199  ASP199     -0.1957
     44  CA        63.0760   39.4680  214.0510 C.3   199  ASP199      0.1840
     45  C         63.7490   40.0950  212.8220 C.2   199  ASP199      0.2622
     46  O         64.2480   41.2190  212.8810 O.2   199  ASP199     -0.2715
     47  CB        64.0380   39.4680  215.2470 C.3   199  ASP199      0.1450
     48  CG        65.3190   38.6730  214.9850 C.2   199  ASP199      0.3671
     49  OD1       65.4040   37.9220  213.9840 O.co2 199  ASP199     -0.2456
     50  OD2       66.2530   38.8080  215.8010 O.co2 199  ASP199     -0.2456
     51  N         63.7700   39.3500  211.7210 N.am  200  LEU200     -0.1963
     52  CA        64.2550   39.8340  210.4190 C.3   200  LEU200      0.1728
     53  C         65.7830   39.8780  210.2580 C.2   200  LEU200      0.2616
     54  O         66.2850   40.2230  209.1810 O.2   200  LEU200     -0.2715
     55  CB        63.5830   41.1680  210.0170 C.3   200  LEU200      0.0311
     56  CG        62.0900   41.1220  209.6010 C.3   200  LEU200      0.0022
     57  CD1       61.6230   42.5130  209.1670 C.3   200  LEU200      0.0001
     58  CD2       61.7870   40.1060  208.4920 C.3   200  LEU200      0.0001
     59  N         66.5120   39.5120  211.3150 N.am  201  ARG201     -0.1963
     60  CA        67.9800   39.4510  211.2670 C.3   201  ARG201      0.1729
     61  C         68.4190   38.5050  210.1490 C.2   201  ARG201      0.2616
     62  O         69.3470   38.7930  209.3920 O.2   201  ARG201     -0.2715
     63  CB        68.5720   39.0030  212.6210 C.3   201  ARG201      0.0348
     64  CG        70.1080   39.1200  212.7130 C.3   201  ARG201      0.0492
     65  CD        70.6760   38.4270  213.9610 C.3   201  ARG201      0.2205
     66  NE        70.2140   37.0390  214.0810 N.pl3 201  ARG201     -0.0865
     67  CZ        70.7970   35.9830  213.5070 C.cat 201  ARG201      0.5346
     68  NH1       71.8970   36.1350  212.7720 N.pl3 201  ARG201      0.1354
     69  NH2       70.2760   34.7660  213.6690 N.pl3 201  ARG201      0.1354
     70  N         67.7220   37.3800  210.0580 N.am  202  THR202     -0.1951
     71  CA        67.9240   36.4020  208.9990 C.3   202  THR202      0.1897
     72  C         67.7430   37.0390  207.6140 C.2   202  THR202      0.2313
     73  O         68.6190   36.9030  206.7580 O.2   202  THR202     -0.2863
     74  CB        67.0170   35.1670  209.2370 C.3   202  THR202      0.1794
     75  OG1       67.6450   34.3120  210.2050 O.3   202  THR202     -0.2208
     76  CG2       66.7420   34.3760  207.9440 C.3   202  THR202      0.0378
     77  N         55.5270   38.2770  207.4800 N.3   222  TYR222     -0.1227
     78  CA        54.4260   38.1750  208.4390 C.3   222  TYR222      0.1736
     79  C         54.8990   37.6430  209.7870 C.2   222  TYR222      0.2595
     80  O         55.4800   36.5560  209.8610 O.2   222  TYR222     -0.2718
     81  CB        53.3290   37.2450  207.9160 C.3   222  TYR222      0.0548
     82  CG        52.8100   37.5160  206.5190 C.ar  222  TYR222     -0.0200
     83  CD1       53.5520   37.1540  205.3910 C.ar  222  TYR222     -0.0009
     84  CD2       51.5490   38.0830  206.3240 C.ar  222  TYR222     -0.0009
     85  CE1       53.0630   37.3760  204.1050 C.ar  222  TYR222      0.0417
     86  CE2       51.0470   38.3080  205.0400 C.ar  222  TYR222      0.0417
     87  CZ        51.8110   37.9500  203.9380 C.ar  222  TYR222      0.1957
     88  OH        51.3260   38.1670  202.6750 O.3   222  TYR222     -0.2866
     89  N         54.6430   38.4140  210.8440 N.am  223  ASP223     -0.1960
     90  CA        54.9220   37.9960  212.2270 C.3   223  ASP223      0.1825
     91  C         54.4670   39.0640  213.2110 C.2   223  ASP223      0.2464
     92  O         54.8650   40.2200  213.1010 O.2   223  ASP223     -0.2730
     93  CB        56.4170   37.7100  212.4390 C.3   223  ASP223      0.1450
     94  CG        56.6790   36.8540  213.6510 C.2   223  ASP223      0.3671
     95  OD1       56.2680   37.2240  214.7660 O.co2 223  ASP223     -0.2456
     96  OD2       57.3120   35.8000  213.4850 O.co2 223  ASP223     -0.2456
     97  N         53.6330   38.6790  214.1830 N.am  224  PRO224     -0.2715
     98  CA        53.2590   39.5410  215.3250 C.3   224  PRO224      0.1536
     99  C         54.4140   40.3310  215.9860 C.2   224  PRO224      0.2598
    100  O         54.1970   41.4640  216.4280 O.2   224  PRO224     -0.2715
    101  CB        52.6640   38.5450  216.3240 C.3   224  PRO224      0.0310
    102  CG        52.0220   37.5350  215.4650 C.3   224  PRO224      0.0237
    103  CD        52.9470   37.3720  214.2460 C.3   224  PRO224      0.0939
    104  N         55.6120   39.7480  216.0550 N.am  225  ILE225     -0.1978
    105  CA        56.7670   40.4180  216.6770 C.3   225  ILE225      0.1596
    106  C         57.7930   40.9840  215.6750 C.2   225  ILE225      0.2287
    107  O         58.9280   41.3030  216.0500 O.2   225  ILE225     -0.2864
    108  CB        57.4840   39.5120  217.7300 C.3   225  ILE225      0.0276
    109  CG1       58.1600   38.3010  217.0630 C.3   225  ILE225      0.0022
    110  CG2       56.5140   39.1010  218.8320 C.3   225  ILE225      0.0022
    111  CD1       59.5010   37.8900  217.6980 C.3   225  ILE225      0.0001
    112  N         50.7410   40.4640  211.5420 N.3   239  ILE239     -0.1231
    113  CA        49.5360   39.6640  211.5400 C.3   239  ILE239      0.1692
    114  C         49.9030   38.2240  211.8690 C.2   239  ILE239      0.2592
    115  O         50.9580   37.7340  211.4670 O.2   239  ILE239     -0.2718
    116  CB        48.8290   39.7890  210.1490 C.3   239  ILE239      0.0266
    117  CG1       47.9340   41.0360  210.1120 C.3   239  ILE239      0.0019
    118  CG2       48.0180   38.5500  209.7790 C.3   239  ILE239      0.0020
    119  CD1       48.6350   42.3070  209.6150 C.3   239  ILE239      0.0001
    120  N         49.0410   37.5600  212.6290 N.am  240  MET240     -0.1965
    121  CA        49.1510   36.1230  212.8200 C.3   240  MET240      0.1736
    122  C         48.2810   35.3900  211.7930 C.2   240  MET240      0.2616
    123  O         47.0830   35.6470  211.6690 O.2   240  MET240     -0.2715
    124  CB        48.7820   35.7330  214.2500 C.3   240  MET240      0.0427
    125  CG        48.9470   34.2590  214.5200 C.3   240  MET240      0.0599
    126  SD        49.4900   33.8860  216.1840 S.3   240  MET240     -0.1393
    127  CE        51.1470   34.5580  216.2120 C.3   240  MET240      0.0692
    128  N         48.9020   34.4700  211.0660 N.am  241  VAL241     -0.1977
    129  CA        48.2880   33.8450  209.8990 C.3   241  VAL241      0.1596
    130  C         47.6220   32.5120  210.2450 C.2   241  VAL241      0.2287
    131  O         48.2740   31.5950  210.7460 O.2   241  VAL241     -0.2864
    132  CB        49.3390   33.6610  208.7810 C.3   241  VAL241      0.0276
    133  CG1       48.7320   33.0010  207.5430 C.3   241  VAL241      0.0022
    134  CG2       49.9730   35.0090  208.4260 C.3   241  VAL241      0.0022
    135  N         57.1990   29.2880  204.8470 N.3   263  TRP263     -0.1227
    136  CA        56.5290   29.0670  206.1490 C.3   263  TRP263      0.1737
    137  C         57.5120   28.5500  207.1910 C.2   263  TRP263      0.2595
    138  O         58.0550   27.4440  207.0520 O.2   263  TRP263     -0.2718
    139  CB        55.3610   28.0840  205.9900 C.3   263  TRP263      0.0564
    140  CG        54.5760   27.7470  207.2550 C.ar  263  TRP263      0.0003
    141  CD1       54.9090   26.8270  208.2150 C.ar  263  TRP263      0.0946
    142  CD2       53.3070   28.2900  207.6490 C.ar  263  TRP263      0.0152
    143  NE1       53.9300   26.7740  209.1900 N.ar  263  TRP263     -0.2442
    144  CE2       52.9340   27.6590  208.8640 C.ar  263  TRP263      0.0810
    145  CE3       52.4490   29.2490  207.0960 C.ar  263  TRP263      0.0012
    146  CZ2       51.7520   27.9720  209.5340 C.ar  263  TRP263      0.0191
    147  CZ3       51.2730   29.5520  207.7600 C.ar  263  TRP263      0.0001
    148  CH2       50.9380   28.9200  208.9660 C.ar  263  TRP263      0.0015
    149  N         57.7290   29.3670  208.2270 N.am  264  ASP264     -0.1960
    150  CA        58.6520   29.0510  209.3240 C.3   264  ASP264      0.1840
    151  C         57.9930   29.2590  210.6830 C.2   264  ASP264      0.2622
    152  O         58.6570   29.5800  211.6760 O.2   264  ASP264     -0.2715
    153  CB        59.9490   29.8780  209.2100 C.3   264  ASP264      0.1450
    154  CG        61.1090   29.2670  209.9970 C.2   264  ASP264      0.3671
    155  OD1       61.1890   28.0200  210.0970 O.co2 264  ASP264     -0.2456
    156  OD2       61.9440   30.0310  210.5190 O.co2 264  ASP264     -0.2456
    157  N         56.6830   29.0480  210.7200 N.am  265  VAL265     -0.1963
    158  CA        55.8770   29.2440  211.9250 C.3   265  VAL265      0.1727
    159  C         56.2060   28.2520  213.0620 C.2   265  VAL265      0.2617
    160  O         56.2750   27.0370  212.8500 O.2   265  VAL265     -0.2715
    161  CB        54.3670   29.2200  211.5630 C.3   265  VAL265      0.0290
    162  CG1       53.4850   29.2820  212.7970 C.3   265  VAL265      0.0023
    163  CG2       54.0420   30.3610  210.6100 C.3   265  VAL265      0.0023
    164  N         56.4250   28.8020  214.2560 N.am  266  SER266     -0.1936
    165  CA        56.6250   28.0360  215.4920 C.3   266  SER266      0.2055
    166  C         56.2430   28.9020  216.7050 C.2   266  SER266      0.2643
    167  O         56.2780   30.1310  216.6230 O.2   266  SER266     -0.2714
    168  CB        58.0760   27.5610  215.6150 C.3   266  SER266      0.2130
    169  OG        58.9390   28.6240  215.9760 O.3   266  SER266     -0.2179
    170  N         55.8870   28.2590  217.8190 N.am  267  SER267     -0.1949
    171  CA        55.4200   28.9750  219.0170 C.3   267  SER267      0.1924
    172  C         56.1260   28.5430  220.3050 C.2   267  SER267      0.2314
    173  O         57.0890   27.7800  220.2660 O.2   267  SER267     -0.2863
    174  CB        53.9010   28.8260  219.1680 C.3   267  SER267      0.2116
    175  OG        53.2060   29.7240  218.3190 O.3   267  SER267     -0.2180
    176  N         50.8690   23.0340  213.1330 N.3   277  GLU277     -0.1245
    177  CA        51.4460   24.2230  212.4720 C.3   277  GLU277      0.1567
    178  C         52.1160   23.8820  211.1550 C.2   277  GLU277      0.2260
    179  O         51.9000   24.5680  210.1620 O.2   277  GLU277     -0.2867
    180  CB        52.4480   24.9580  213.3700 C.3   277  GLU277      0.0388
    181  CG        51.8280   25.5620  214.6220 C.3   277  GLU277      0.1160
    182  CD        52.8750   26.0150  215.6200 C.2   277  GLU277      0.3649
    183  OE1       54.0250   25.5120  215.5580 O.co2 277  GLU277     -0.2457
    184  OE2       52.5410   26.8720  216.4670 O.co2 277  GLU277     -0.2457
    185  N         49.5030   23.0690  208.7410 N.3   280  LEU280     -0.1245
    186  CA        48.7190   24.2490  208.3640 C.3   280  LEU280      0.1561
    187  C         49.3710   25.0000  207.2150 C.2   280  LEU280      0.2260
    188  O         48.6960   25.3600  206.2480 O.2   280  LEU280     -0.2867
    189  CB        48.5260   25.2020  209.5480 C.3   280  LEU280      0.0270
    190  CG        47.6650   26.4380  209.2640 C.3   280  LEU280      0.0019
    191  CD1       46.2590   26.0110  208.8310 C.3   280  LEU280      0.0001
    192  CD2       47.5980   27.3900  210.4660 C.3   280  LEU280      0.0001
    193  N         58.4000   24.6270  206.9950 N.3   298  LYS298     -0.1245
    194  CA        59.0610   24.0780  208.1760 C.3   298  LYS298      0.1561
    195  C         58.5750   22.6520  208.4280 C.2   298  LYS298      0.2260
    196  O         57.3790   22.3740  208.3330 O.2   298  LYS298     -0.2867
    197  CB        58.7460   24.9540  209.3840 C.3   298  LYS298      0.0271
    198  CG        59.7210   24.8440  210.5320 C.3   298  LYS298      0.0035
    199  CD        59.1020   25.4110  211.8110 C.3   298  LYS298      0.0206
    200  CE        60.1230   26.1520  212.6580 C.3   298  LYS298      0.1093
    201  NZ        61.4110   25.4220  212.7240 N.3   298  LYS298     -0.1314
@<TRIPOS>BOND
     1    88    87    1
     2     9    10    1
     3    87    85   ar
     4    87    86   ar
     5    85    83   ar
     6    10    13    1
     7    10    11    1
     8    13    14    1
     9   135   136    1
    10    86    84   ar
    11    28    26    1
    12    14    16   ar
    13    14    15   ar
    14    16    18   ar
    15    83    82   ar
    16    26    25    1
    17    11    21   am
    18    11    12    2
    19   139   136    1
    20   139   140    1
    21    21    22    1
    22    18    19   ar
    23    15    17   ar
    24   136   137    1
    25   188   187    2
    26     4     3    2
    27    84    82   ar
    28    82    81    1
    29    73    72    2
    30    19    17   ar
    31    19    20    1
    32   193   194    1
    33   138   137    2
    34     3     2    1
    35   145   142   ar
    36   145   147   ar
    37    25    22    1
    38    25    27    1
    39   137   149   am
    40   187   186    1
    41   140   142   ar
    42   140   141   ar
    43    22    23    1
    44    77    78    1
    45   133   132    1
    46    72    71    1
    47   142   144   ar
    48   147   148   ar
    49    81    78    1
    50    76    74    1
    51   194   195    1
    52   194   197    1
    53    24    23    2
    54   141   143   ar
    55   149   150    1
    56     2     1    1
    57     2     5    1
    58   196   195    2
    59   186   185    1
    60   186   189    1
    61    23    29   am
    62   134   132    1
    63    78    79    1
    64    58    56    1
    65   132   129    1
    66    37    38    1
    67    37    34    1
    68   191   190    1
    69   144   143   ar
    70   144   146   ar
    71   148   146   ar
    72    71    74    1
    73    71    70    1
    74    57    56    1
    75    54    53    2
    76     8     6    1
    77   153   150    1
    78   153   154    1
    79    74    75    1
    80   190   189    1
    81   190   192    1
    82   150   151    1
    83   197   198    1
    84    62    61    2
    85     5     6    1
    86    29    30    1
    87    56    55    1
    88   119   117    1
    89    34    33    1
    90    34    35    1
    91   118   116    1
    92    79    80    2
    93    79    89   am
    94   129   130    1
    95   129   128    1
    96    33    31   am
    97   154   155   ar
    98   154   156   ar
    99    55    52    1
   100    70    61   am
   101     6     7    1
   102   117   116    1
   103   116   113    1
   104    61    60    1
   105   179   178    2
   106   130   131    2
   107    53    52    1
   108    53    59   am
   109    52    51    1
   110    31    30    1
   111    31    32    2
   112   198   199    1
   113   163   161    1
   114   151   157   am
   115   151   152    2
   116    36    35    2
   117   157   158    1
   118    89    90    1
   119    35    39   am
   120   128   122   am
   121   178   177    1
   122    60    59    1
   123    60    63    1
   124   115   114    2
   125   113   112    1
   126   113   114    1
   127   161   158    1
   128   161   162    1
   129   123   122    2
   130    51    45   am
   131   122   121    1
   132   199   200    1
   133   114   120   am
   134   158   159    1
   135    39    40    1
   136    90    93    1
   137    90    91    1
   138    93    94    1
   139   177   176    1
   140   177   180    1
   141    63    64    1
   142   120   121    1
   143   200   201    1
   144    64    65    1
   145    68    67    1
   146   121   124    1
   147    45    46    2
   148    45    44    1
   149   160   159    2
   150    42    41    2
   151   159   164   am
   152    92    91    2
   153    91    97   am
   154    40    41    1
   155    41    43   am
   156   180   181    1
   157    96    94   ar
   158    67    69    1
   159    67    66    2
   160    94    95   ar
   161    43    44    1
   162    65    66    1
   163    49    48   ar
   164    44    47    1
   165    97   103    1
   166    97    98    1
   167   103   102    1
   168   124   125    1
   169   164   165    1
   170   125   126    1
   171   181   182    1
   172    48    47    1
   173    48    50   ar
   174    98    99    1
   175    98   101    1
   176   102   101    1
   177   165   168    1
   178   165   166    1
   179   183   182   ar
   180   168   169    1
   181   182   184   ar
   182   106   107    2
   183   106   105    1
   184    99   104   am
   185    99   100    2
   186   104   105    1
   187   126   127    1
   188   167   166    2
   189   105   108    1
   190   166   170   am
   191   109   111    1
   192   109   108    1
   193   108   110    1
   194   170   171    1
   195   175   174    1
   196   171   174    1
   197   171   172    1
   198   173   172    2
