@<TRIPOS>MOLECULE
tmp/2jhpA00.pdb
 162 158 0 0 0
SMALL
GASTEIGER

@<TRIPOS>ATOM
      1  N         81.5610   32.4810  179.2370 N.3   121  ARG121     -0.1245
      2  CA        80.1810   32.4150  179.6700 C.3   121  ARG121      0.1563
      3  C         79.4960   33.7650  179.5290 C.2   121  ARG121      0.2260
      4  O         78.2970   33.8250  179.2390 O.2   121  ARG121     -0.2867
      5  CB        80.0690   31.9130  181.1020 C.3   121  ARG121      0.0307
      6  CG        78.7260   31.2290  181.3910 C.3   121  ARG121      0.0489
      7  CD        78.6100   30.6710  182.8090 C.3   121  ARG121      0.2205
      8  NE        79.6480   29.6800  183.0680 N.pl3 121  ARG121     -0.0865
      9  CZ        80.7770   29.9490  183.7050 C.cat 121  ARG121      0.5346
     10  NH1       80.9860   31.1770  184.1510 N.pl3 121  ARG121      0.1354
     11  NH2       81.6840   28.9970  183.8840 N.pl3 121  ARG121      0.1354
     12  N         73.1260   24.6300  178.5510 N.3   132  HIS132     -0.1226
     13  CA        73.1540   23.2090  178.8790 C.3   132  HIS132      0.1752
     14  C         74.3770   22.8060  179.7070 C.2   132  HIS132      0.2597
     15  O         75.3760   23.5250  179.7490 O.2   132  HIS132     -0.2718
     16  CB        72.9900   22.3740  177.6130 C.3   132  HIS132      0.0759
     17  CG        71.6820   22.6090  176.9190 C.ar  132  HIS132      0.0818
     18  ND1       70.5660   21.8320  177.1480 N.ar  132  HIS132     -0.2268
     19  CD2       71.3010   23.5600  176.0330 C.ar  132  HIS132      0.1154
     20  CE1       69.5590   22.2830  176.4220 C.ar  132  HIS132      0.1986
     21  NE2       69.9780   23.3310  175.7360 N.ar  132  HIS132     -0.2212
     22  N         74.2550   21.6670  180.3910 N.am  133  GLY133     -0.1942
     23  CA        75.2450   21.1740  181.3560 C.3   133  GLY133      0.2014
     24  C         75.4750   22.1480  182.5030 C.2   133  GLY133      0.2640
     25  O         76.6020   22.3030  182.9800 O.2   133  GLY133     -0.2714
     26  N         74.4110   22.8100  182.9470 N.am  134  SER134     -0.1935
     27  CA        74.5800   23.9610  183.8350 C.3   134  SER134      0.2055
     28  C         74.6820   23.5140  185.2600 C.2   134  SER134      0.2642
     29  O         74.2650   22.4230  185.5920 O.2   134  SER134     -0.2714
     30  CB        73.4230   24.9580  183.6980 C.3   134  SER134      0.2130
     31  OG        73.2820   25.4290  182.3710 O.3   134  SER134     -0.2179
     32  N         75.2510   24.3760  186.0920 N.am  135  GLU135     -0.1976
     33  CA        75.2860   24.1870  187.5390 C.3   135  GLU135      0.1602
     34  C         75.2310   25.5610  188.1670 C.2   135  GLU135      0.2287
     35  O         75.0040   26.5450  187.4560 O.2   135  GLU135     -0.2864
     36  CB        76.5450   23.4540  187.9520 C.3   135  GLU135      0.0415
     37  CG        76.4710   21.9740  187.8180 C.3   135  GLU135      0.1163
     38  CD        77.6890   21.3360  188.3940 C.2   135  GLU135      0.3649
     39  OE1       78.4870   22.0460  189.0340 O.co2 135  GLU135     -0.2457
     40  OE2       77.8710   20.1300  188.2290 O.co2 135  GLU135     -0.2457
     41  N         77.1330   27.9190  188.9640 N.3   137  GLU137     -0.1231
     42  CA        77.8480   29.0270  188.2890 C.3   137  GLU137      0.1699
     43  C         77.0190   29.7260  187.1980 C.2   137  GLU137      0.2592
     44  O         77.1460   30.9360  186.9990 O.2   137  GLU137     -0.2718
     45  CB        79.1950   28.5780  187.7140 C.3   137  GLU137      0.0402
     46  CG        79.1150   27.9890  186.3110 C.3   137  GLU137      0.1161
     47  CD        78.4710   26.6180  186.2990 C.2   137  GLU137      0.3649
     48  OE1       78.9980   25.7220  186.9850 O.co2 137  GLU137     -0.2457
     49  OE2       77.4480   26.4300  185.6120 O.co2 137  GLU137     -0.2457
     50  N         76.1720   28.9630  186.5090 N.am  138  THR138     -0.1953
     51  CA        75.3410   29.5240  185.4580 C.3   138  THR138      0.1897
     52  C         74.1260   30.2370  186.0360 C.2   138  THR138      0.2313
     53  O         73.8350   31.3690  185.6470 O.2   138  THR138     -0.2863
     54  CB        74.9210   28.4730  184.4230 C.3   138  THR138      0.1794
     55  OG1       76.0920   27.8210  183.9300 O.3   138  THR138     -0.2208
     56  CG2       74.2160   29.1420  183.2470 C.3   138  THR138      0.0378
     57  N         72.1880   18.4370  184.1710 N.3   152  MET152     -0.1231
     58  CA        71.9050   17.2140  184.9220 C.3   152  MET152      0.1687
     59  C         72.7900   17.2130  186.1730 C.2   152  MET152      0.2434
     60  O         73.7570   16.4610  186.2650 O.2   152  MET152     -0.2733
     61  CB        72.1320   15.9750  184.0530 C.3   152  MET152      0.0400
     62  CG        71.4250   16.0410  182.7210 C.3   152  MET152      0.0596
     63  SD        71.3050   14.4650  181.9090 S.3   152  MET152     -0.1393
     64  CE        69.7540   13.8590  182.5790 C.3   152  MET152      0.0692
     65  N         72.4820   18.1070  187.1230 N.am  153  PRO153     -0.2718
     66  CA        73.3190   18.2460  188.3060 C.3   153  PRO153      0.1535
     67  C         73.1110   17.0950  189.2700 C.2   153  PRO153      0.2598
     68  O         72.0740   16.4310  189.2090 O.2   153  PRO153     -0.2715
     69  CB        72.8440   19.5680  188.9150 C.3   153  PRO153      0.0310
     70  CG        71.4440   19.7070  188.4630 C.3   153  PRO153      0.0237
     71  CD        71.3470   19.0540  187.1290 C.3   153  PRO153      0.0939
     72  N         74.1020   16.8730  190.1410 N.am  154  GLU154     -0.1978
     73  CA        74.1230   15.7540  191.0850 C.3   154  GLU154      0.1602
     74  C         72.9770   15.9420  192.0580 C.2   154  GLU154      0.2287
     75  O         72.9330   16.9180  192.7880 O.2   154  GLU154     -0.2864
     76  CB        75.4680   15.6990  191.8270 C.3   154  GLU154      0.0415
     77  CG        76.0680   14.2830  191.9490 C.3   154  GLU154      0.1163
     78  CD        77.1390   14.1350  193.0640 C.2   154  GLU154      0.3649
     79  OE1       77.9080   15.0950  193.3220 O.co2 154  GLU154     -0.2457
     80  OE2       77.2170   13.0420  193.6770 O.co2 154  GLU154     -0.2457
     81  N         67.6580   18.1050  181.8350 N.3   387  LYS387     -0.1231
     82  CA        67.5900   17.7940  180.3970 C.3   387  LYS387      0.1693
     83  C         68.9750   17.4170  179.8900 C.2   387  LYS387      0.2592
     84  O         69.9610   18.0690  180.2360 O.2   387  LYS387     -0.2718
     85  CB        67.1300   19.0310  179.6140 C.3   387  LYS387      0.0285
     86  CG        66.1040   18.7780  178.5230 C.3   387  LYS387      0.0035
     87  CD        64.7000   18.9660  179.0790 C.3   387  LYS387      0.0206
     88  CE        63.6520   19.0700  177.9840 C.3   387  LYS387      0.1093
     89  NZ        62.3770   19.6230  178.5230 N.3   387  LYS387     -0.1314
     90  N         69.0550   16.3750  179.0670 N.am  388  ASN388     -0.1960
     91  CA        70.3190   15.9810  178.4510 C.3   388  ASN388      0.1819
     92  C         70.5920   16.7980  177.1890 C.2   388  ASN388      0.2622
     93  O         69.8960   16.6640  176.1740 O.2   388  ASN388     -0.2715
     94  CB        70.3480   14.4760  178.1420 C.3   388  ASN388      0.1195
     95  CG        71.7380   13.9760  177.7060 C.2   388  ASN388      0.2630
     96  OD1       72.5420   14.7200  177.1190 O.2   388  ASN388     -0.2716
     97  ND2       72.0200   12.7010  177.9880 N.am  388  ASN388     -0.0877
     98  N         71.6370   17.6160  177.2610 N.am  389  GLY389     -0.1940
     99  CA        72.0060   18.5380  176.2050 C.3   389  GLY389      0.2014
    100  C         72.0670   17.9110  174.8330 C.2   389  GLY389      0.2638
    101  O         71.6010   18.5120  173.8600 O.2   389  GLY389     -0.2714
    102  N         72.6250   16.7000  174.7610 N.am  390  LEU390     -0.1977
    103  CA        72.8170   16.0010  173.4890 C.3   390  LEU390      0.1596
    104  C         71.4930   15.5840  172.8790 C.2   390  LEU390      0.2287
    105  O         71.3860   15.4540  171.6650 O.2   390  LEU390     -0.2864
    106  CB        73.7000   14.7680  173.6650 C.3   390  LEU390      0.0297
    107  CG        75.0630   14.9320  174.3350 C.3   390  LEU390      0.0022
    108  CD1       75.5500   13.5900  174.8610 C.3   390  LEU390      0.0001
    109  CD2       76.0720   15.5540  173.3910 C.3   390  LEU390      0.0001
    110  N         78.6110   24.9260  177.3680 N.3   401  LEU401     -0.1231
    111  CA        79.9120   25.1860  177.9460 C.3   401  LEU401      0.1693
    112  C         80.3240   24.1120  178.9730 C.2   401  LEU401      0.2592
    113  O         79.5730   23.7950  179.8900 O.2   401  LEU401     -0.2718
    114  CB        79.9290   26.5930  178.5560 C.3   401  LEU401      0.0284
    115  CG        79.7290   27.7840  177.6130 C.3   401  LEU401      0.0019
    116  CD1       79.4040   29.0500  178.3500 C.3   401  LEU401      0.0001
    117  CD2       80.9560   27.9750  176.7540 C.3   401  LEU401      0.0001
    118  N         81.5060   23.5420  178.7540 N.am  402  PHE402     -0.1962
    119  CA        82.2070   22.7000  179.7070 C.3   402  PHE402      0.1771
    120  C         81.4040   21.5000  180.1970 C.2   402  PHE402      0.2619
    121  O         81.1850   21.3480  181.3950 O.2   402  PHE402     -0.2715
    122  CB        82.7190   23.5150  180.9230 C.3   402  PHE402      0.0574
    123  CG        83.4970   24.7370  180.5620 C.ar  402  PHE402     -0.0200
    124  CD1       82.9340   25.9910  180.7150 C.ar  402  PHE402     -0.0042
    125  CD2       84.7940   24.6350  180.0810 C.ar  402  PHE402     -0.0042
    126  CE1       83.6430   27.1270  180.3870 C.ar  402  PHE402     -0.0003
    127  CE2       85.5240   25.7740  179.7560 C.ar  402  PHE402     -0.0003
    128  CZ        84.9450   27.0220  179.9050 C.ar  402  PHE402     -0.0000
    129  N         80.9700   20.6510  179.2740 N.am  403  TYR403     -0.1974
    130  CA        80.2360   19.4600  179.6580 C.3   403  TYR403      0.1639
    131  C         80.3240   18.3540  178.6140 C.2   403  TYR403      0.2290
    132  O         80.4040   17.1740  178.9600 O.2   403  TYR403     -0.2864
    133  CB        78.7720   19.8020  180.0130 C.3   403  TYR403      0.0560
    134  CG        77.7840   19.8500  178.8600 C.ar  403  TYR403     -0.0198
    135  CD1       77.1480   18.6890  178.4180 C.ar  403  TYR403     -0.0009
    136  CD2       77.4610   21.0610  178.2380 C.ar  403  TYR403     -0.0009
    137  CE1       76.2220   18.7260  177.3690 C.ar  403  TYR403      0.0417
    138  CE2       76.5340   21.1170  177.1810 C.ar  403  TYR403      0.0417
    139  CZ        75.9140   19.9510  176.7560 C.ar  403  TYR403      0.1957
    140  OH        75.0150   19.9740  175.7110 O.3   403  TYR403     -0.2866
    141  N         82.7450   15.4990  179.1060 N.3   406  ASN406     -0.1240
    142  CA        82.6310   14.8080  180.3860 C.3   406  ASN406      0.1653
    143  C         82.5590   13.3050  180.1330 C.2   406  ASN406      0.2266
    144  O         81.9590   12.8690  179.1440 O.2   406  ASN406     -0.2867
    145  CB        81.3690   15.2410  181.1310 C.3   406  ASN406      0.1155
    146  CG        81.5370   16.5490  181.9040 C.2   406  ASN406      0.2627
    147  OD1       80.7540   16.8290  182.8080 O.2   406  ASN406     -0.2716
    148  ND2       82.5390   17.3550  181.5450 N.am  406  ASN406     -0.0877
    149  N         80.8740   10.9070  181.2500 N.3   408  CYS408     -0.1221
    150  CA        79.5200   10.3640  181.0740 C.3   408  CYS408      0.1808
    151  C         78.9970   10.4210  179.6260 C.2   408  CYS408      0.2601
    152  O         77.9450    9.8630  179.3340 O.2   408  CYS408     -0.2717
    153  CB        78.5350   11.0790  182.0020 C.3   408  CYS408      0.0970
    154  SG        78.2230   12.7990  181.5470 S.3   408  CYS408     -0.0800
    155  N         79.7260   11.0930  178.7360 N.am  409  ASN409     -0.1974
    156  CA        79.3410   11.2190  177.3190 C.3   409  ASN409      0.1688
    157  C         80.2710   10.4810  176.3510 C.2   409  ASN409      0.2292
    158  O         80.1830   10.6560  175.1290 O.2   409  ASN409     -0.2864
    159  CB        79.2440   12.6970  176.9150 C.3   409  ASN409      0.1181
    160  CG        78.3220   13.4800  177.8180 C.2   409  ASN409      0.2629
    161  OD1       77.3560   12.9380  178.3430 O.2   409  ASN409     -0.2716
    162  ND2       78.6200   14.7600  178.0150 N.am  409  ASN409     -0.0877
@<TRIPOS>BOND
     1   105   104    2
     2   104   103    1
     3   109   107    1
     4   103   106    1
     5   103   102    1
     6   106   107    1
     7   101   100    2
     8   107   108    1
     9   102   100   am
    10   100    99    1
    11   158   157    2
    12   140   139    1
    13    21    19   ar
    14    21    20   ar
    15    19    17   ar
    16    93    92    2
    17    99    98    1
    18   157   156    1
    19    20    18   ar
    20   117   115    1
    21   139   138   ar
    22   139   137   ar
    23   159   156    1
    24   159   160    1
    25    17    18   ar
    26    17    16    1
    27    96    95    2
    28   138   136   ar
    29    92    98   am
    30    92    91    1
    31   156   155    1
    32   110   111    1
    33   137   135   ar
    34   115   116    1
    35   115   114    1
    36    16    13    1
    37    95    97   am
    38    95    94    1
    39   160   162   am
    40   160   161    2
    41   111   114    1
    42   111   112    1
    43    88    89    1
    44    88    87    1
    45    94    91    1
    46   136   134   ar
    47   135   134   ar
    48    91    90    1
    49    86    87    1
    50    86    85    1
    51    12    13    1
    52   131   132    2
    53   131   130    1
    54   155   151   am
    55   118   112   am
    56   118   119    1
    57   134   133    1
    58    13    14    1
    59   112   113    2
    60    90    83   am
    61   141   142    1
    62   144   143    2
    63     1     2    1
    64     4     3    2
    65   129   130    1
    66   129   120   am
    67   152   151    2
    68     3     2    1
    69    85    82    1
    70   151   150    1
    71   130   133    1
    72     2     5    1
    73   119   120    1
    74   119   122    1
    75    14    15    2
    76    14    22   am
    77   127   128   ar
    78   127   125   ar
    79    83    84    2
    80    83    82    1
    81   128   126   ar
    82   125   123   ar
    83   143   142    1
    84   120   121    2
    85   142   145    1
    86   126   124   ar
    87    22    23    1
    88    82    81    1
    89   123   124   ar
    90   123   122    1
    91   150   149    1
    92   150   153    1
    93     5     6    1
    94   145   146    1
    95    23    24    1
    96     6     7    1
    97   148   146   am
    98   154   153    1
    99   146   147    2
   100    63    64    1
   101    63    62    1
   102    31    30    1
   103    24    26   am
   104    24    25    2
   105    62    61    1
   106     7     8    1
   107    26    27    1
   108     8     9    2
   109    56    54    1
   110    30    27    1
   111     9    11    1
   112     9    10    1
   113    27    28    1
   114    55    54    1
   115    61    58    1
   116    57    58    1
   117    54    51    1
   118    58    59    1
   119    28    29    2
   120    28    32   am
   121    51    52    1
   122    51    50    1
   123    49    47   ar
   124    53    52    2
   125    32    33    1
   126    59    60    2
   127    59    65   am
   128    47    46    1
   129    47    48   ar
   130    46    45    1
   131    50    43   am
   132    44    43    2
   133    65    71    1
   134    65    66    1
   135    71    70    1
   136    43    42    1
   137    35    34    2
   138    33    36    1
   139    33    34    1
   140    45    42    1
   141    37    36    1
   142    37    38    1
   143    40    38   ar
   144    42    41    1
   145    66    69    1
   146    66    67    1
   147    38    39   ar
   148    70    69    1
   149    68    67    2
   150    67    72   am
   151    72    73    1
   152    73    76    1
   153    73    74    1
   154    76    77    1
   155    77    78    1
   156    74    75    2
   157    78    79   ar
   158    78    80   ar
