@<TRIPOS>MOLECULE
tmp/2jhrA01.pdb
 99 93 0 0 0
SMALL
GASTEIGER

@<TRIPOS>ATOM
      1  N         18.4650   46.6810   36.0200 N.3   264  LYS264     -0.1245
      2  CA        18.3800   48.0260   35.5210 C.3   264  LYS264      0.1561
      3  C         17.0280   48.4190   34.9760 C.2   264  LYS264      0.2260
      4  O         16.8300   49.5560   34.6080 O.2   264  LYS264     -0.2867
      5  CB        19.5400   48.3890   34.5920 C.3   264  LYS264      0.0271
      6  CG        19.6220   47.6720   33.2940 C.3   264  LYS264      0.0035
      7  CD        20.9250   48.0140   32.6220 C.3   264  LYS264      0.0206
      8  CE        21.0280   47.4170   31.2340 C.3   264  LYS264      0.1093
      9  NZ        20.2080   48.1510   30.2380 N.3   264  LYS264     -0.1314
     10  N         20.1520   52.3650   29.9380 N.3   423  ALA423     -0.1245
     11  CA        21.5180   52.3390   29.4210 C.3   423  ALA423      0.1562
     12  C         22.4220   53.3330   30.1000 C.2   423  ALA423      0.2260
     13  O         23.5690   53.0440   30.3480 O.2   423  ALA423     -0.2867
     14  CB        21.5310   52.5720   27.9200 C.3   423  ALA423      0.0290
     15  N         23.0700   51.9400   33.8790 N.3   426  GLY426     -0.1210
     16  CA        23.9400   50.7830   33.8430 C.3   426  GLY426      0.1956
     17  C         25.3900   51.1410   33.6300 C.2   426  GLY426      0.2611
     18  O         26.2610   50.6460   34.3170 O.2   426  GLY426     -0.2717
     19  N         25.6470   52.0250   32.6460 N.am  427  ARG427     -0.1979
     20  CA        26.9750   52.5340   32.4600 C.3   427  ARG427      0.1597
     21  C         27.5980   53.2090   33.6650 C.2   427  ARG427      0.2287
     22  O         28.7440   52.9520   33.9800 O.2   427  ARG427     -0.2864
     23  CB        27.0210   53.4140   31.2280 C.3   427  ARG427      0.0334
     24  CG        26.6070   52.6690   30.0130 C.3   427  ARG427      0.0492
     25  CD        26.7110   53.4260   28.7420 C.3   427  ARG427      0.2205
     26  NE        26.1240   52.6850   27.6480 N.pl3 427  ARG427     -0.0865
     27  CZ        26.2750   53.0010   26.3890 C.cat 427  ARG427      0.5346
     28  NH1       26.9140   54.0990   26.0560 N.pl3 427  ARG427      0.1354
     29  NH2       25.7920   52.2120   25.4570 N.pl3 427  ARG427      0.1354
     30  N         28.5920   50.5750   36.4480 N.3   430  LEU430     -0.1245
     31  CA        29.8350   50.1590   35.8520 C.3   430  LEU430      0.1561
     32  C         30.9940   51.1360   36.0580 C.2   430  LEU430      0.2260
     33  O         31.9830   50.8060   36.6830 O.2   430  LEU430     -0.2867
     34  CB        29.6170   49.9250   34.3750 C.3   430  LEU430      0.0270
     35  CG        30.4560   48.8910   33.6320 C.3   430  LEU430      0.0019
     36  CD1       30.0780   47.4880   34.0130 C.3   430  LEU430      0.0001
     37  CD2       30.3410   49.1030   32.1490 C.3   430  LEU430      0.0001
     38  N         18.4520   43.8330   24.5890 N.3   589  ASP589     -0.1225
     39  CA        19.0190   45.0990   25.0190 C.3   589  ASP589      0.1790
     40  C         19.2810   46.1590   23.9590 C.2   589  ASP589      0.2440
     41  O         20.3950   46.6310   23.7960 O.2   589  ASP589     -0.2733
     42  CB        20.2190   44.9080   25.9260 C.3   589  ASP589      0.1423
     43  CG        20.3340   45.9810   26.9570 C.2   589  ASP589      0.3668
     44  OD1       19.2970   46.4210   27.4570 O.co2 589  ASP589     -0.2456
     45  OD2       21.4130   46.4560   27.3330 O.co2 589  ASP589     -0.2456
     46  N         18.2360   46.5410   23.2090 N.am  590  PRO590     -0.2718
     47  CA        18.3140   47.5500   22.1500 C.3   590  PRO590      0.1535
     48  C         18.4410   49.0190   22.5780 C.2   590  PRO590      0.2598
     49  O         17.9780   49.4160   23.6380 O.2   590  PRO590     -0.2715
     50  CB        17.0340   47.3070   21.3710 C.3   590  PRO590      0.0310
     51  CG        16.0900   46.9670   22.4550 C.3   590  PRO590      0.0237
     52  CD        16.8950   45.9420   23.2300 C.3   590  PRO590      0.0939
     53  N         19.0950   49.8100   21.7310 N.am  591  LEU591     -0.1978
     54  CA        19.2700   51.2520   21.9390 C.3   591  LEU591      0.1596
     55  C         19.6150   51.8570   20.5770 C.2   591  LEU591      0.2287
     56  O         20.5430   51.3990   19.9090 O.2   591  LEU591     -0.2864
     57  CB        20.3940   51.5770   22.9270 C.3   591  LEU591      0.0297
     58  CG        20.4780   53.0820   23.1800 C.3   591  LEU591      0.0022
     59  CD1       19.1520   53.5880   23.7260 C.3   591  LEU591      0.0001
     60  CD2       21.5840   53.3600   24.1790 C.3   591  LEU591      0.0001
     61  N         22.8910   57.0600   20.9350 N.3   596  GLU596     -0.1245
     62  CA        24.2830   56.8150   21.3010 C.3   596  GLU596      0.1567
     63  C         25.1360   57.8260   20.5750 C.2   596  GLU596      0.2260
     64  O         26.1760   58.2230   21.0580 O.2   596  GLU596     -0.2867
     65  CB        24.7120   55.3990   20.9090 C.3   596  GLU596      0.0388
     66  CG        24.4960   54.3290   21.9770 C.3   596  GLU596      0.1160
     67  CD        25.1050   52.9940   21.5720 C.2   596  GLU596      0.3649
     68  OE1       24.5400   52.3190   20.6790 O.co2 596  GLU596     -0.2457
     69  OE2       26.1620   52.6300   22.1350 O.co2 596  GLU596     -0.2457
     70  N         32.9820   50.5030   28.2750 N.3   616  ILE616     -0.1231
     71  CA        31.7480   51.0030   28.8680 C.3   616  ILE616      0.1692
     72  C         30.6150   51.0250   27.8470 C.2   616  ILE616      0.2592
     73  O         29.4780   50.6720   28.1590 O.2   616  ILE616     -0.2718
     74  CB        31.9330   52.4190   29.4460 C.3   616  ILE616      0.0266
     75  CG1       33.2060   52.4870   30.2910 C.3   616  ILE616      0.0019
     76  CG2       30.7190   52.8210   30.2690 C.3   616  ILE616      0.0020
     77  CD1       33.0210   52.0080   31.7140 C.3   616  ILE616      0.0001
     78  N         30.9340   51.4430   26.6260 N.am  617  ALA617     -0.1966
     79  CA        29.9140   51.7320   25.6250 C.3   617  ALA617      0.1728
     80  C         29.8290   50.6190   24.5860 C.2   617  ALA617      0.2617
     81  O         28.8140   50.4660   23.9080 O.2   617  ALA617     -0.2715
     82  CB        30.1950   53.0680   24.9530 C.3   617  ALA617      0.0334
     83  N         30.9030   49.8450   24.4670 N.am  618  SER618     -0.1936
     84  CA        30.9820   48.7870   23.4530 C.3   618  SER618      0.2055
     85  C         30.1450   47.5800   23.8410 C.2   618  SER618      0.2642
     86  O         29.5290   47.5430   24.9040 O.2   618  SER618     -0.2714
     87  CB        32.4290   48.3110   23.2230 C.3   618  SER618      0.2130
     88  OG        33.2510   49.2990   22.6240 O.3   618  SER618     -0.2179
     89  N         30.1220   46.5920   22.9600 N.am  619  ARG619     -0.1977
     90  CA        29.3650   45.3800   23.2180 C.3   619  ARG619      0.1597
     91  C         29.8310   44.3210   22.2430 C.2   619  ARG619      0.2287
     92  O         29.8680   44.5550   21.0290 O.2   619  ARG619     -0.2864
     93  CB        27.8600   45.6300   23.0540 C.3   619  ARG619      0.0334
     94  CG        26.9870   44.4650   23.5150 C.3   619  ARG619      0.0492
     95  CD        25.5140   44.8650   23.6490 C.3   619  ARG619      0.2205
     96  NE        24.6630   43.7390   24.0480 N.pl3 619  ARG619     -0.0865
     97  CZ        24.3470   43.4290   25.3050 C.cat 619  ARG619      0.5346
     98  NH1       24.8020   44.1610   26.3150 N.pl3 619  ARG619      0.1354
     99  NH2       23.5740   42.3790   25.5550 N.pl3 619  ARG619      0.1354
@<TRIPOS>BOND
     1    56    55    2
     2    63    64    2
     3    63    62    1
     4    55    54    1
     5    68    67   ar
     6    65    62    1
     7    65    66    1
     8    61    62    1
     9    92    91    2
    10    50    47    1
    11    50    51    1
    12    67    66    1
    13    67    69   ar
    14    53    54    1
    15    53    48   am
    16    54    57    1
    17    47    48    1
    18    47    46    1
    19    91    90    1
    20    51    52    1
    21    48    49    2
    22    88    87    1
    23    57    58    1
    24    89    90    1
    25    89    85   am
    26    93    90    1
    27    93    94    1
    28    58    59    1
    29    58    60    1
    30    46    52    1
    31    46    40   am
    32    87    84    1
    33    84    85    1
    34    84    83    1
    35    94    95    1
    36    95    96    1
    37    41    40    2
    38    85    86    2
    39    81    80    2
    40    40    39    1
    41    96    97    2
    42    83    80   am
    43    80    79    1
    44    38    39    1
    45    82    79    1
    46    39    42    1
    47    97    99    1
    48    97    98    1
    49    29    27    1
    50    79    78    1
    51    42    43    1
    52    28    27    1
    53    27    26    2
    54    78    72   am
    55    43    45   ar
    56    43    44   ar
    57    26    25    1
    58    72    73    2
    59    72    71    1
    60    14    11    1
    61    70    71    1
    62    25    24    1
    63    71    74    1
    64    11    10    1
    65    11    12    1
    66    74    76    1
    67    74    75    1
    68    24    23    1
    69    12    13    2
    70     9     8    1
    71    75    77    1
    72    23    20    1
    73     8     7    1
    74    37    35    1
    75    20    19    1
    76    20    21    1
    77     7     6    1
    78    19    17   am
    79     6     5    1
    80    17    16    1
    81    17    18    2
    82    35    36    1
    83    35    34    1
    84    21    22    2
    85    16    15    1
    86    34    31    1
    87     5     2    1
    88     4     3    2
    89     3     2    1
    90     2     1    1
    91    31    32    1
    92    31    30    1
    93    32    33    2
