@<TRIPOS>MOLECULE
tmp/2ji5B00.pdb
 148 140 0 0 0
SMALL
GASTEIGER

@<TRIPOS>ATOM
      1  N         22.5490   83.7640   43.9880 N.3    10  GLY10      -0.1210
      2  CA        23.4540   82.8610   43.3050 C.3    10  GLY10       0.1956
      3  C         22.7620   81.6610   42.6840 C.2    10  GLY10       0.2612
      4  O         23.1350   81.2200   41.5910 O.2    10  GLY10      -0.2717
      5  N         21.7610   81.1220   43.3710 N.am   11  SER11      -0.1952
      6  CA        21.0420   79.9680   42.8450 C.3    11  SER11       0.1924
      7  C         20.2480   80.3290   41.5950 C.2    11  SER11       0.2314
      8  O         20.0030   79.4790   40.7410 O.2    11  SER11      -0.2863
      9  CB        20.1140   79.3840   43.9090 C.3    11  SER11       0.2116
     10  OG        20.8650   78.6790   44.8870 O.3    11  SER11      -0.2180
     11  N         25.2120   86.6630   43.8020 N.3    44  GLY44      -0.1210
     12  CA        25.4970   85.6380   44.7940 C.3    44  GLY44       0.1956
     13  C         26.3640   84.4890   44.2940 C.2    44  GLY44       0.2612
     14  O         26.8470   84.5040   43.1460 O.2    44  GLY44      -0.2717
     15  N         26.5410   83.4800   45.1510 N.am   45  GLY45      -0.1942
     16  CA        27.3730   82.3300   44.8180 C.3    45  GLY45       0.2014
     17  C         26.6880   81.0790   44.2870 C.2    45  GLY45       0.2639
     18  O         27.2740   80.3210   43.5150 O.2    45  GLY45      -0.2714
     19  N         25.4570   80.8400   44.7170 N.am   46  GLY46      -0.1954
     20  CA        24.7320   79.6790   44.2380 C.3    46  GLY46       0.1869
     21  C         25.2640   78.3150   44.6400 C.2    46  GLY46       0.2309
     22  O         25.9960   78.1660   45.6190 O.2    46  GLY46      -0.2863
     23  N         29.2430   77.7460   44.8320 N.3    49  ALA49      -0.1231
     24  CA        29.9240   78.2030   46.0390 C.3    49  ALA49       0.1694
     25  C         29.7700   77.1790   47.1530 C.2    49  ALA49       0.2591
     26  O         30.6610   77.0000   47.9820 O.2    49  ALA49      -0.2718
     27  CB        29.3710   79.5520   46.4830 C.3    49  ALA49       0.0304
     28  N         28.6370   76.4960   47.1700 N.am   50  ARG50      -0.1980
     29  CA        28.4090   75.4890   48.1910 C.3    50  ARG50       0.1597
     30  C         29.2800   74.2620   47.9310 C.2    50  ARG50       0.2287
     31  O         29.8170   73.6710   48.8610 O.2    50  ARG50      -0.2864
     32  CB        26.9180   75.1350   48.2530 C.3    50  ARG50       0.0334
     33  CG        26.0910   76.2410   48.9120 C.3    50  ARG50       0.0492
     34  CD        24.6060   75.9560   48.8880 C.3    50  ARG50       0.2205
     35  NE        24.0940   75.9380   47.5240 N.pl3  50  ARG50      -0.0865
     36  CZ        22.8030   75.9240   47.2080 C.cat  50  ARG50       0.5346
     37  NH1       21.8830   75.9270   48.1670 N.pl3  50  ARG50       0.1354
     38  NH2       22.4300   75.9080   45.9330 N.pl3  50  ARG50       0.1354
     39  N         32.6980   75.2040   49.0660 N.3    53  ILE53      -0.1245
     40  CA        32.7110   75.3760   50.5060 C.3    53  ILE53       0.1561
     41  C         32.6770   73.9930   51.1540 C.2    53  ILE53       0.2260
     42  O         33.3860   73.7360   52.1330 O.2    53  ILE53      -0.2867
     43  CB        31.5140   76.2410   50.9700 C.3    53  ILE53       0.0252
     44  CG1       31.7680   77.7010   50.5710 C.3    53  ILE53       0.0019
     45  CG2       31.3190   76.1100   52.4810 C.3    53  ILE53       0.0019
     46  CD1       30.6430   78.6480   50.8850 C.3    53  ILE53       0.0001
     47  N         34.1450   81.2370   54.0440 N.3    67  ASP67      -0.1239
     48  CA        33.4960   82.4700   53.6210 C.3    67  ASP67       0.1674
     49  C         34.3100   83.0800   52.4940 C.2    67  ASP67       0.2266
     50  O         33.7560   83.5660   51.5100 O.2    67  ASP67      -0.2867
     51  CB        33.3970   83.4690   54.7840 C.3    67  ASP67       0.1410
     52  CG        32.1660   83.2430   55.6560 C.2    67  ASP67       0.3668
     53  OD1       31.3050   82.4190   55.2890 O.co2  67  ASP67      -0.2456
     54  OD2       32.0470   83.9010   56.7120 O.co2  67  ASP67      -0.2456
     55  N         33.6030   81.2160   49.3220 N.3    70  GLY70      -0.1210
     56  CA        32.3110   81.5570   48.7600 C.3    70  GLY70       0.1956
     57  C         32.3940   82.9100   48.0680 C.2    70  GLY70       0.2611
     58  O         31.8340   83.1060   46.9890 O.2    70  GLY70      -0.2717
     59  N         33.1010   83.8470   48.6960 N.am   71  ILE71      -0.1979
     60  CA        33.2640   85.1870   48.1490 C.3    71  ILE71       0.1595
     61  C         33.9520   85.1290   46.7960 C.2    71  ILE71       0.2287
     62  O         33.5410   85.8000   45.8480 O.2    71  ILE71      -0.2864
     63  CB        34.0940   86.0660   49.0990 C.3    71  ILE71       0.0276
     64  CG1       33.2520   86.4250   50.3250 C.3    71  ILE71       0.0022
     65  CG2       34.5770   87.3210   48.3770 C.3    71  ILE71       0.0022
     66  CD1       34.0580   87.0380   51.4740 C.3    71  ILE71       0.0001
     67  N         31.5560   84.0070   44.2560 N.3    74  THR74      -0.1218
     68  CA        30.5700   85.0220   43.8960 C.3    74  THR74       0.1862
     69  C         31.1680   86.0120   42.9030 C.2    74  THR74       0.2287
     70  O         30.4490   86.6010   42.1010 O.2    74  THR74      -0.2866
     71  CB        30.0330   85.8160   45.1280 C.3    74  THR74       0.1770
     72  OG1       31.0970   86.5590   45.7280 O.3    74  THR74      -0.2211
     73  CG2       29.4230   84.8750   46.1590 C.3    74  THR74       0.0375
     74  N         30.7600   89.1860   46.7590 N.3   114  GLY114     -0.1210
     75  CA        30.7860   89.3400   48.2050 C.3   114  GLY114      0.1956
     76  C         31.9070   90.2680   48.6450 C.2   114  GLY114      0.2613
     77  O         32.6950   90.7020   47.8140 O.2   114  GLY114     -0.2717
     78  N         32.0010   90.5770   49.9360 N.am  115  THR115     -0.1938
     79  CA        33.0570   91.4840   50.3940 C.3   115  THR115      0.2028
     80  C         33.7810   91.1080   51.6730 C.2   115  THR115      0.2642
     81  O         34.9720   91.3460   51.8000 O.2   115  THR115     -0.2714
     82  CB        32.5340   92.9160   50.6550 C.3   115  THR115      0.1808
     83  OG1       31.5520   92.8760   51.6970 O.3   115  THR115     -0.2208
     84  CG2       31.9320   93.5150   49.4040 C.3   115  THR115      0.0379
     85  N         33.0700   90.5260   52.6230 N.am  116  HIS116     -0.1959
     86  CA        33.6810   90.2280   53.9040 C.3   116  HIS116      0.1772
     87  C         33.0460   89.0030   54.5550 C.2   116  HIS116      0.2462
     88  O         31.8670   88.7250   54.3590 O.2   116  HIS116     -0.2730
     89  CB        33.5070   91.4810   54.7870 C.3   116  HIS116      0.0785
     90  CG        34.2030   91.4210   56.1110 C.ar  116  HIS116      0.0821
     91  ND1       33.7470   90.6540   57.1630 N.ar  116  HIS116     -0.2267
     92  CD2       35.2990   92.0750   56.5700 C.ar  116  HIS116      0.1154
     93  CE1       34.5290   90.8400   58.2120 C.ar  116  HIS116      0.1986
     94  NE2       35.4770   91.6980   57.8800 N.ar  116  HIS116     -0.2212
     95  N         33.8330   88.2440   55.3300 N.am  117  PRO117     -0.2727
     96  CA        33.3040   87.0530   56.0040 C.3   117  PRO117      0.1402
     97  C         32.1980   87.4720   56.9610 C.2   117  PRO117      0.2269
     98  O         32.1240   88.6400   57.3550 O.2   117  PRO117     -0.2865
     99  CB        34.5110   86.5190   56.7720 C.3   117  PRO117      0.0296
    100  CG        35.6680   86.9580   55.9290 C.3   117  PRO117      0.0237
    101  CD        35.2860   88.3630   55.5240 C.3   117  PRO117      0.0939
    102  N         28.8940   87.5870   56.4300 N.3   119  HIS119     -0.1226
    103  CA        27.6080   87.8980   55.8440 C.3   119  HIS119      0.1752
    104  C         27.4830   87.4160   54.4170 C.2   119  HIS119      0.2597
    105  O         28.3570   86.7390   53.9080 O.2   119  HIS119     -0.2718
    106  CB        27.3010   89.3910   55.9470 C.3   119  HIS119      0.0759
    107  CG        28.3850   90.2740   55.4320 C.ar  119  HIS119      0.0818
    108  ND1       29.0480   91.1770   56.2360 N.ar  119  HIS119     -0.2268
    109  CD2       28.8920   90.4290   54.1870 C.ar  119  HIS119      0.1154
    110  CE1       29.9140   91.8540   55.5050 C.ar  119  HIS119      0.1986
    111  NE2       29.8390   91.4190   54.2580 N.ar  119  HIS119     -0.2212
    112  N         26.3840   87.7690   53.7750 N.am  120  THR120     -0.1939
    113  CA        26.1220   87.3130   52.4230 C.3   120  THR120      0.2028
    114  C         25.9680   88.4780   51.4690 C.2   120  THR120      0.2643
    115  O         25.9760   89.6310   51.8880 O.2   120  THR120     -0.2714
    116  CB        24.8300   86.5070   52.4080 C.3   120  THR120      0.1808
    117  OG1       23.7570   87.3610   52.8230 O.3   120  THR120     -0.2208
    118  CG2       24.9220   85.3260   53.3860 C.3   120  THR120      0.0379
    119  N         25.8080   88.1700   50.1860 N.am  121  THR121     -0.1936
    120  CA        25.6400   89.2160   49.1920 C.3   121  THR121      0.2028
    121  C         24.4110   90.0980   49.4620 C.2   121  THR121      0.2642
    122  O         24.3720   91.2450   49.0200 O.2   121  THR121     -0.2714
    123  CB        25.5800   88.6340   47.7490 C.3   121  THR121      0.1808
    124  OG1       24.6160   87.5780   47.6870 O.3   121  THR121     -0.2208
    125  CG2       26.9570   88.1060   47.3270 C.3   121  THR121      0.0379
    126  N         23.4210   89.5870   50.1910 N.am  122  ASP122     -0.1971
    127  CA        22.2460   90.4060   50.5000 C.3   122  ASP122      0.1709
    128  C         22.7140   91.6120   51.3180 C.2   122  ASP122      0.2293
    129  O         22.2920   92.7510   51.0840 O.2   122  ASP122     -0.2864
    130  CB        21.2050   89.6300   51.3190 C.3   122  ASP122      0.1436
    131  CG        20.6750   88.4120   50.5990 C.2   122  ASP122      0.3671
    132  OD1       20.5730   88.4500   49.3540 O.co2 122  ASP122     -0.2456
    133  OD2       20.3430   87.4150   51.2820 O.co2 122  ASP122     -0.2456
    134  N         25.6850   92.7670   51.3100 N.3   124  VAL124     -0.1245
    135  CA        26.4870   93.5910   50.4240 C.3   124  VAL124      0.1561
    136  C         25.5590   94.5440   49.6600 C.2   124  VAL124      0.2260
    137  O         25.7880   95.7460   49.6490 O.2   124  VAL124     -0.2867
    138  CB        27.3070   92.7100   49.4350 C.3   124  VAL124      0.0252
    139  CG1       28.0190   93.5740   48.4170 C.3   124  VAL124      0.0019
    140  CG2       28.3330   91.8820   50.2080 C.3   124  VAL124      0.0019
    141  N         15.4740   82.7040   45.3520 N.3   142  ASN142     -0.1240
    142  CA        14.8820   81.4550   44.8870 C.3   142  ASN142      0.1653
    143  C         13.4610   81.2370   45.4000 C.2   142  ASN142      0.2266
    144  O         12.7890   80.2780   45.0140 O.2   142  ASN142     -0.2867
    145  CB        15.7710   80.2730   45.2830 C.3   142  ASN142      0.1155
    146  CG        15.9560   80.1570   46.7780 C.2   142  ASN142      0.2627
    147  OD1       16.5800   79.2140   47.2610 O.2   142  ASN142     -0.2716
    148  ND2       15.4170   81.1150   47.5230 N.am  142  ASN142     -0.0877
@<TRIPOS>BOND
     1     8     7    2
     2     4     3    2
     3     7     6    1
     4    70    69    2
     5     3     2    1
     6     3     5   am
     7     6     5    1
     8     6     9    1
     9    69    68    1
    10    14    13    2
    11     2     1    1
    12    18    17    2
    13    11    12    1
    14    68    67    1
    15    68    71    1
    16     9    10    1
    17    20    21    1
    18    20    19    1
    19    17    19   am
    20    17    16    1
    21    13    12    1
    22    13    15   am
    23    21    22    2
    24    16    15    1
    25    23    24    1
    26   142   145    1
    27   142   141    1
    28   142   143    1
    29   144   143    2
    30    71    72    1
    31    71    73    1
    32   145   146    1
    33    62    61    2
    34    38    36    1
    35    24    27    1
    36    24    25    1
    37    74    75    1
    38   146   147    2
    39   146   148   am
    40    61    60    1
    41    58    57    2
    42    25    28   am
    43    25    26    2
    44    28    29    1
    45    36    35    2
    46    36    37    1
    47   125   123    1
    48    35    34    1
    49   124   123    1
    50   123   120    1
    51    77    76    2
    52    30    29    1
    53    30    31    2
    54    57    59   am
    55    57    56    1
    56    60    59    1
    57    60    63    1
    58    29    32    1
    59    75    76    1
    60    32    33    1
    61    65    63    1
    62   139   138    1
    63    76    78   am
    64    56    55    1
    65    34    33    1
    66   122   121    2
    67    39    40    1
    68    63    64    1
    69   120   121    1
    70   120   119    1
    71   132   131   ar
    72    84    82    1
    73   138   140    1
    74   138   135    1
    75   121   126   am
    76   137   136    2
    77   136   135    1
    78    78    79    1
    79   119   114   am
    80   126   127    1
    81    64    66    1
    82    79    82    1
    83    79    80    1
    84   135   134    1
    85   127   128    1
    86   127   130    1
    87    40    43    1
    88    40    41    1
    89    44    46    1
    90    44    43    1
    91   131   133   ar
    92   131   130    1
    93    82    83    1
    94    43    45    1
    95   129   128    2
    96    41    42    2
    97   114   115    2
    98   114   113    1
    99    50    49    2
   100    80    81    2
   101    80    85   am
   102   116   113    1
   103   116   117    1
   104   116   118    1
   105   113   112    1
   106    49    48    1
   107    85    86    1
   108    48    47    1
   109    48    51    1
   110   112   104   am
   111    86    87    1
   112    86    89    1
   113   105   104    2
   114   109   111   ar
   115   109   107   ar
   116   111   110   ar
   117    88    87    2
   118   104   103    1
   119    87    95   am
   120    51    52    1
   121    89    90    1
   122    53    52   ar
   123    95   101    1
   124    95    96    1
   125   107   106    1
   126   107   108   ar
   127   110   108   ar
   128   101   100    1
   129    52    54   ar
   130   103   106    1
   131   103   102    1
   132   100    99    1
   133    96    99    1
   134    96    97    1
   135    90    92   ar
   136    90    91   ar
   137    92    94   ar
   138    97    98    2
   139    91    93   ar
   140    94    93   ar
