@<TRIPOS>MOLECULE
tmp/2ji7A05.pdb
 92 89 0 0 0
SMALL
GASTEIGER

@<TRIPOS>ATOM
      1  N         48.0220   -5.5490   -2.2000 N.3    25  VAL25      -0.1231
      2  CA        47.6160   -4.3610   -1.4460 C.3    25  VAL25       0.1692
      3  C         46.4040   -3.7500   -2.1520 C.2    25  VAL25       0.2592
      4  O         46.4150   -3.5810   -3.3760 O.2    25  VAL25      -0.2718
      5  CB        48.7440   -3.3070   -1.3640 C.3    25  VAL25       0.0266
      6  CG1       48.3030   -2.1110   -0.5340 C.3    25  VAL25       0.0020
      7  CG2       50.0270   -3.9190   -0.7860 C.3    25  VAL25       0.0020
      8  N         45.3670   -3.4230   -1.3890 N.am   26  VAL26      -0.1966
      9  CA        44.0930   -2.9870   -1.9680 C.3    26  VAL26       0.1727
     10  C         44.0790   -1.4760   -2.2320 C.2    26  VAL26       0.2617
     11  O         45.0850   -0.7910   -2.0350 O.2    26  VAL26      -0.2715
     12  CB        42.8750   -3.4290   -1.1100 C.3    26  VAL26       0.0290
     13  CG1       42.8890   -4.9460   -0.9150 C.3    26  VAL26       0.0023
     14  CG2       42.8390   -2.6960    0.2280 C.3    26  VAL26       0.0023
     15  N         42.9350   -0.9770   -2.6970 N.am   27  GLY27      -0.1940
     16  CA        42.8010    0.4040   -3.1560 C.3    27  GLY27       0.2014
     17  C         42.0180    0.4380   -4.4530 C.2    27  GLY27       0.2638
     18  O         41.7170   -0.6130   -5.0380 O.2    27  GLY27      -0.2714
     19  N         41.6730    1.6410   -4.9010 N.am   28  ILE28      -0.1977
     20  CA        40.9570    1.8070   -6.1630 C.3    28  ILE28       0.1596
     21  C         41.8360    1.2850   -7.3120 C.2    28  ILE28       0.2287
     22  O         43.0320    1.5940   -7.3580 O.2    28  ILE28      -0.2864
     23  CB        40.6180    3.2930   -6.4320 C.3    28  ILE28       0.0276
     24  CG1       39.6620    3.8440   -5.3630 C.3    28  ILE28       0.0022
     25  CG2       40.0160    3.4610   -7.8300 C.3    28  ILE28       0.0022
     26  CD1       39.6180    5.3730   -5.3120 C.3    28  ILE28       0.0001
     27  N         53.4380   -3.0710    1.3180 N.3    49  HIS49      -0.1226
     28  CA        54.0100   -2.5600    0.0680 C.3    49  HIS49       0.1752
     29  C         53.8700   -3.6760   -0.9860 C.2    49  HIS49       0.2595
     30  O         54.0970   -4.8540   -0.6840 O.2    49  HIS49      -0.2718
     31  CB        55.4840   -2.1690    0.3020 C.3    49  HIS49       0.0759
     32  CG        56.1120   -1.3660   -0.8000 C.ar   49  HIS49       0.0818
     33  ND1       56.4000   -1.8960   -2.0390 N.ar   49  HIS49      -0.2268
     34  CD2       56.5560   -0.0860   -0.8290 C.ar   49  HIS49       0.1154
     35  CE1       56.9800   -0.9750   -2.7880 C.ar   49  HIS49       0.1986
     36  NE2       57.0850    0.1350   -2.0780 N.ar   49  HIS49      -0.2212
     37  N         53.4980   -3.3070   -2.2110 N.am   50  GLU50      -0.1979
     38  CA        53.2040   -4.2900   -3.2640 C.3    50  GLU50       0.1602
     39  C         54.4280   -5.0900   -3.7120 C.2    50  GLU50       0.2287
     40  O         54.2900   -6.2230   -4.1830 O.2    50  GLU50      -0.2864
     41  CB        52.5540   -3.6280   -4.4950 C.3    50  GLU50       0.0415
     42  CG        51.1880   -2.9770   -4.2430 C.3    50  GLU50       0.1163
     43  CD        51.2590   -1.5200   -3.8020 C.2    50  GLU50       0.3649
     44  OE1       52.3730   -0.9780   -3.6160 O.co2  50  GLU50      -0.2457
     45  OE2       50.1810   -0.9090   -3.6500 O.co2  50  GLU50      -0.2457
     46  N         46.8430   -2.1140   -7.2920 N.3    73  VAL73      -0.1245
     47  CA        46.1490   -0.9980   -7.9190 C.3    73  VAL73       0.1561
     48  C         46.9030   -0.5500   -9.1800 C.2    73  VAL73       0.2260
     49  O         47.8670   -1.1910   -9.6160 O.2    73  VAL73      -0.2867
     50  CB        45.9670    0.2060   -6.9400 C.3    73  VAL73       0.0252
     51  CG1       45.2060   -0.2260   -5.6870 C.3    73  VAL73       0.0019
     52  CG2       47.3180    0.8430   -6.5750 C.3    73  VAL73       0.0019
     53  N         51.0670    3.6510   -9.4090 N.3    76  PRO76      -0.2102
     54  CA        52.0860    3.5200   -8.3530 C.3    76  PRO76       0.1504
     55  C         52.1550    2.1140   -7.7280 C.2    76  PRO76       0.2576
     56  O         53.2520    1.6230   -7.4460 O.2    76  PRO76      -0.2718
     57  CB        51.6600    4.5680   -7.3190 C.3    76  PRO76       0.0282
     58  CG        50.1970    4.7440   -7.5460 C.3    76  PRO76       0.0208
     59  CD        50.0110    4.6050   -9.0280 C.3    76  PRO76       0.0893
     60  N         50.9980    1.4770   -7.5440 N.am   77  GLY77      -0.1957
     61  CA        50.9330    0.1250   -7.0090 C.3    77  GLY77       0.1869
     62  C         51.4210   -0.9060   -8.0060 C.2    77  GLY77       0.2309
     63  O         52.1810   -1.8060   -7.6550 O.2    77  GLY77      -0.2863
     64  N         55.2920   -0.8840   -8.2690 N.3    80  ASN80      -0.1240
     65  CA        55.8580   -1.6220   -7.1510 C.3    80  ASN80       0.1653
     66  C         55.7970   -3.1300   -7.3980 C.2    80  ASN80       0.2266
     67  O         56.7880   -3.8260   -7.2260 O.2    80  ASN80      -0.2867
     68  CB        55.1480   -1.2410   -5.8420 C.3    80  ASN80       0.1155
     69  CG        55.4540    0.1990   -5.3950 C.2    80  ASN80       0.2627
     70  OD1       56.4170    0.8120   -5.8500 O.2    80  ASN80      -0.2716
     71  ND2       54.6440    0.7230   -4.4800 N.am   80  ASN80      -0.0877
     72  N         43.3410    9.4640  -13.1960 N.3   114  TYR114     -0.1227
     73  CA        43.7100    8.8770  -11.9100 C.3   114  TYR114      0.1736
     74  C         44.7310    7.7670  -12.1460 C.2   114  TYR114      0.2595
     75  O         44.5010    6.8770  -12.9720 O.2   114  TYR114     -0.2718
     76  CB        42.4760    8.2890  -11.2260 C.3   114  TYR114      0.0548
     77  CG        42.7400    7.6590   -9.8810 C.ar  114  TYR114     -0.0200
     78  CD1       42.8830    8.4460   -8.7380 C.ar  114  TYR114     -0.0009
     79  CD2       42.8260    6.2760   -9.7390 C.ar  114  TYR114     -0.0009
     80  CE1       43.1190    7.8760   -7.4950 C.ar  114  TYR114      0.0417
     81  CE2       43.0590    5.6910   -8.4930 C.ar  114  TYR114      0.0417
     82  CZ        43.2070    6.4940   -7.3770 C.ar  114  TYR114      0.1957
     83  OH        43.4370    5.9280   -6.1370 O.3   114  TYR114     -0.2866
     84  N         45.8690    7.8520  -11.4570 N.am  115  GLU115     -0.1979
     85  CA        46.9310    6.8470  -11.5590 C.3   115  GLU115      0.1602
     86  C         47.1640    6.4130  -13.0090 C.2   115  GLU115      0.2287
     87  O         47.1620    5.2160  -13.3340 O.2   115  GLU115     -0.2864
     88  CB        46.6180    5.6590  -10.6400 C.3   115  GLU115      0.0415
     89  CG        46.7050    6.0470   -9.1670 C.3   115  GLU115      0.1163
     90  CD        46.4780    4.9000   -8.1920 C.2   115  GLU115      0.3649
     91  OE1       46.3300    3.7360   -8.6160 O.co2 115  GLU115     -0.2457
     92  OE2       46.4510    5.1800   -6.9760 O.co2 115  GLU115     -0.2457
@<TRIPOS>BOND
     1    87    86    2
     2    72    73    1
     3    86    85    1
     4    75    74    2
     5    74    73    1
     6    74    84   am
     7    73    76    1
     8    85    84    1
     9    85    88    1
    10    76    77    1
    11    88    89    1
    12    77    79   ar
    13    77    78   ar
    14    79    81   ar
    15    49    48    2
    16    53    59    1
    17    53    54    1
    18    48    47    1
    19    89    90    1
    20    59    58    1
    21    78    80   ar
    22    91    90   ar
    23    81    82   ar
    24    54    55    1
    25    54    57    1
    26    64    65    1
    27    90    92   ar
    28    62    63    2
    29    62    61    1
    30    47    46    1
    31    47    50    1
    32    25    23    1
    33    55    60   am
    34    55    56    2
    35    58    57    1
    36    60    61    1
    37    80    82   ar
    38    66    67    2
    39    66    65    1
    40    82    83    1
    41    22    21    2
    42    21    20    1
    43    65    68    1
    44    50    52    1
    45    50    51    1
    46    23    20    1
    47    23    24    1
    48    20    19    1
    49    70    69    2
    50    68    69    1
    51    69    71   am
    52    24    26    1
    53    18    17    2
    54    19    17   am
    55    41    42    1
    56    41    38    1
    57    17    16    1
    58    42    43    1
    59    40    39    2
    60    43    45   ar
    61    43    44   ar
    62    39    38    1
    63     4     3    2
    64    38    37    1
    65    16    15    1
    66    35    36   ar
    67    35    33   ar
    68    15    10   am
    69    10    11    2
    70    10     9    1
    71    37    29   am
    72     1     2    1
    73     3     2    1
    74     3     8   am
    75    36    34   ar
    76    33    32   ar
    77     9     8    1
    78     9    12    1
    79     2     5    1
    80     5     7    1
    81     5     6    1
    82    12    13    1
    83    12    14    1
    84    29    30    2
    85    29    28    1
    86    34    32   ar
    87    32    31    1
    88    28    31    1
    89    28    27    1
