@<TRIPOS>MOLECULE
tmp/2ji7A03.pdb
 75 68 0 0 0
SMALL
GASTEIGER

@<TRIPOS>ATOM
      1  N         84.3650  -26.7860   10.9280 N.3   357  ALA357     -0.1245
      2  CA        83.9510  -27.2260   12.2610 C.3   357  ALA357      0.1562
      3  C         84.7490  -26.4990   13.3440 C.2   357  ALA357      0.2260
      4  O         84.1860  -26.0710   14.3560 O.2   357  ALA357     -0.2867
      5  CB        84.1090  -28.7400   12.4000 C.3   357  ALA357      0.0290
      6  N         83.4000  -22.8950   13.6600 N.3   360  MET360     -0.1230
      7  CA        82.0690  -22.8150   14.2780 C.3   360  MET360      0.1702
      8  C         82.1330  -23.0060   15.7910 C.2   360  MET360      0.2593
      9  O         81.2350  -22.5800   16.5160 O.2   360  MET360     -0.2718
     10  CB        81.1160  -23.8420   13.6510 C.3   360  MET360      0.0401
     11  CG        80.8260  -23.5750   12.1830 C.3   360  MET360      0.0596
     12  SD        79.5810  -24.6480   11.4550 S.3   360  MET360     -0.1393
     13  CE        80.4190  -26.2330   11.5240 C.3   360  MET360      0.0692
     14  N         83.2170  -23.6320   16.2450 N.am  361  THR361     -0.1953
     15  CA        83.4670  -23.9280   17.6500 C.3   361  THR361      0.1897
     16  C         84.1460  -22.7570   18.3850 C.2   361  THR361      0.2313
     17  O         84.2200  -22.7500   19.6140 O.2   361  THR361     -0.2863
     18  CB        84.3810  -25.1960   17.7400 C.3   361  THR361      0.1794
     19  OG1       83.7020  -26.4580   17.8550 O.3   361  THR361     -0.2208
     20  CG2       85.8700  -25.0330   18.1160 C.3   361  THR361      0.0378
     21  N         80.3920  -19.0780   14.3350 N.3   373  ASN373     -0.1240
     22  CA        79.8210  -19.6080   15.5840 C.3   373  ASN373      0.1653
     23  C         78.3280  -19.3000   15.7430 C.2   373  ASN373      0.2266
     24  O         77.5910  -20.0870   16.3260 O.2   373  ASN373     -0.2867
     25  CB        80.6530  -19.2510   16.8340 C.3   373  ASN373      0.1155
     26  CG        80.6900  -17.7540   17.1680 C.2   373  ASN373      0.2627
     27  OD1       80.1590  -16.8990   16.4500 O.2   373  ASN373     -0.2716
     28  ND2       81.3460  -17.4400   18.2850 N.am  373  ASN373     -0.0877
     29  N         76.6480  -21.6170   12.9590 N.3   376  GLY376     -0.1210
     30  CA        76.7890  -22.9970   13.4230 C.3   376  GLY376      0.1956
     31  C         75.5900  -23.4680   14.2420 C.2   376  GLY376      0.2611
     32  O         75.2180  -24.6430   14.1940 O.2   376  GLY376     -0.2717
     33  N         74.9900  -22.5480   14.9940 N.am  377  VAL377     -0.1979
     34  CA        73.7810  -22.8410   15.7760 C.3   377  VAL377      0.1595
     35  C         72.6100  -23.1420   14.8320 C.2   377  VAL377      0.2287
     36  O         71.8720  -24.1130   15.0280 O.2   377  VAL377     -0.2864
     37  CB        73.4280  -21.6660   16.7410 C.3   377  VAL377      0.0276
     38  CG1       72.0690  -21.8870   17.4020 C.3   377  VAL377      0.0022
     39  CG2       74.5400  -21.4790   17.8030 C.3   377  VAL377      0.0022
     40  N         72.8820  -24.1270   11.7500 N.3   379  ARG379     -0.1231
     41  CA        73.2500  -25.3760   11.0810 C.3   379  ARG379      0.1694
     42  C         72.7270  -26.5850   11.8560 C.2   379  ARG379      0.2592
     43  O         72.0080  -27.4200   11.3050 O.2   379  ARG379     -0.2718
     44  CB        74.7760  -25.4790   10.9050 C.3   379  ARG379      0.0321
     45  CG        75.2690  -26.8490   10.4280 C.3   379  ARG379      0.0489
     46  CD        76.7850  -26.9720   10.4460 C.3   379  ARG379      0.2205
     47  NE        77.2140  -28.2780    9.9440 N.pl3 379  ARG379     -0.0865
     48  CZ        77.3690  -29.3810   10.6830 C.cat 379  ARG379      0.5346
     49  NH1       77.1340  -29.3850   11.9940 N.pl3 379  ARG379      0.1354
     50  NH2       77.7590  -30.5070   10.0930 N.pl3 379  ARG379      0.1354
     51  N         73.0860  -26.6640   13.1340 N.am  380  ASP380     -0.1974
     52  CA        72.6550  -27.7750   13.9820 C.3   380  ASP380      0.1709
     53  C         71.1360  -27.8590   14.0520 C.2   380  ASP380      0.2293
     54  O         70.5710  -28.9510   14.0100 O.2   380  ASP380     -0.2864
     55  CB        73.2070  -27.6360   15.4010 C.3   380  ASP380      0.1436
     56  CG        74.7060  -27.8680   15.4830 C.2   380  ASP380      0.3671
     57  OD1       75.2760  -28.5850   14.6300 O.co2 380  ASP380     -0.2456
     58  OD2       75.3100  -27.3290   16.4280 O.co2 380  ASP380     -0.2456
     59  N         69.6660  -29.2070   10.7340 N.3   383  LEU383     -0.1245
     60  CA        69.9220  -30.6500   10.6220 C.3   383  LEU383      0.1561
     61  C         68.9250  -31.4760   11.4560 C.2   383  LEU383      0.2260
     62  O         68.5470  -32.5810   11.0550 O.2   383  LEU383     -0.2867
     63  CB        71.3610  -30.9940   11.0320 C.3   383  LEU383      0.0270
     64  CG        72.4860  -30.6270   10.0560 C.3   383  LEU383      0.0019
     65  CD1       73.8520  -30.9300   10.6840 C.3   383  LEU383      0.0001
     66  CD2       72.3370  -31.3490    8.7190 C.3   383  LEU383      0.0001
     67  N         70.8890  -20.2580   20.3080 N.3   520  LYS520     -0.1245
     68  CA        70.3460  -21.6200   20.2690 C.3   520  LYS520      0.1561
     69  C         69.0210  -21.7390   21.0340 C.2   520  LYS520      0.2260
     70  O         68.0390  -22.2910   20.5110 O.2   520  LYS520     -0.2867
     71  CB        71.3750  -22.6120   20.8320 C.3   520  LYS520      0.0271
     72  CG        70.9650  -24.0950   20.7620 C.3   520  LYS520      0.0035
     73  CD        72.1010  -24.9930   21.2310 C.3   520  LYS520      0.0206
     74  CE        71.7250  -26.4800   21.1930 C.3   520  LYS520      0.1093
     75  NZ        70.7190  -26.8300   22.2260 N.3   520  LYS520     -0.1314
@<TRIPOS>BOND
     1    66    64    1
     2    47    46    1
     3    47    48    2
     4    64    65    1
     5    64    63    1
     6    50    48    1
     7    45    46    1
     8    45    44    1
     9    60    59    1
    10    60    63    1
    11    60    61    1
    12    48    49    1
    13    44    41    1
    14     1     2    1
    15    62    61    2
    16    41    40    1
    17    41    42    1
    18    43    42    2
    19    12    13    1
    20    12    11    1
    21    42    51   am
    22    11    10    1
    23     2     5    1
    24     2     3    1
    25    29    30    1
    26    51    52    1
    27     3     4    2
    28    30    31    1
    29    10     7    1
    30     6     7    1
    31    52    53    1
    32    52    55    1
    33    54    53    2
    34    32    31    2
    35    31    33   am
    36     7     8    1
    37    21    22    1
    38    57    56   ar
    39    35    36    2
    40    35    34    1
    41    33    34    1
    42    55    56    1
    43    56    58   ar
    44    22    23    1
    45    22    25    1
    46    23    24    2
    47    34    37    1
    48     8    14   am
    49     8     9    2
    50    14    15    1
    51    27    26    2
    52    37    38    1
    53    37    39    1
    54    25    26    1
    55    26    28   am
    56    15    18    1
    57    15    16    1
    58    18    19    1
    59    18    20    1
    60    16    17    2
    61    68    67    1
    62    68    71    1
    63    68    69    1
    64    70    69    2
    65    72    71    1
    66    72    73    1
    67    74    73    1
    68    74    75    1
