@<TRIPOS>MOLECULE
tmp/2ji9B01.pdb
 153 150 0 0 0
SMALL
GASTEIGER

@<TRIPOS>ATOM
      1  N         63.0570    8.9410   -3.6050 N.3    55  TYR55      -0.1241
      2  CA        62.0030    9.9200   -3.2620 C.3    55  TYR55       0.1605
      3  C         62.6220   11.1220   -2.5620 C.2    55  TYR55       0.2264
      4  O         62.1380   12.2440   -2.7020 O.2    55  TYR55      -0.2867
      5  CB        60.8970    9.3180   -2.3760 C.3    55  TYR55       0.0534
      6  CG        59.9880    8.3250   -3.0570 C.ar   55  TYR55      -0.0201
      7  CD1       59.6320    7.1360   -2.4330 C.ar   55  TYR55      -0.0009
      8  CD2       59.4780    8.5700   -4.3300 C.ar   55  TYR55      -0.0009
      9  CE1       58.7810    6.2170   -3.0640 C.ar   55  TYR55       0.0417
     10  CE2       58.6520    7.6530   -4.9670 C.ar   55  TYR55       0.0417
     11  CZ        58.3050    6.4840   -4.3320 C.ar   55  TYR55       0.1957
     12  OH        57.4830    5.5900   -4.9780 O.3    55  TYR55      -0.2866
     13  N         39.7830   12.2160   13.0150 N.3   371  TYR371     -0.1241
     14  CA        40.7060   12.9920   12.1920 C.3   371  TYR371      0.1605
     15  C         40.6270   14.4940   12.4600 C.2   371  TYR371      0.2264
     16  O         41.6090   15.2030   12.2520 O.2   371  TYR371     -0.2867
     17  CB        40.5010   12.6840   10.6970 C.3   371  TYR371      0.0534
     18  CG        41.0090   11.3100   10.3150 C.ar  371  TYR371     -0.0201
     19  CD1       42.3300   11.1180    9.9310 C.ar  371  TYR371     -0.0009
     20  CD2       40.1840   10.1970   10.3910 C.ar  371  TYR371     -0.0009
     21  CE1       42.8050    9.8520    9.6070 C.ar  371  TYR371      0.0417
     22  CE2       40.6510    8.9320   10.0760 C.ar  371  TYR371      0.0417
     23  CZ        41.9550    8.7660    9.6850 C.ar  371  TYR371      0.1957
     24  OH        42.4080    7.5050    9.3680 O.3   371  TYR371     -0.2866
     25  N         48.6090    9.1950    2.7600 N.3   394  GLY394     -0.1210
     26  CA        47.5530    8.3170    3.2650 C.3   394  GLY394      0.1956
     27  C         46.2880    8.5550    2.4690 C.2   394  GLY394      0.2612
     28  O         46.3400    9.1540    1.3850 O.2   394  GLY394     -0.2717
     29  N         45.1600    8.0710    2.9920 N.am  395  ALA395     -0.1965
     30  CA        43.8510    8.3780    2.4320 C.3   395  ALA395      0.1728
     31  C         43.1880    9.4190    3.3360 C.2   395  ALA395      0.2616
     32  O         43.3700   10.6230    3.1320 O.2   395  ALA395     -0.2715
     33  CB        42.9820    7.1050    2.3070 C.3   395  ALA395      0.0334
     34  N         42.4480    8.9690    4.3470 N.am  396  ASN396     -0.1958
     35  CA        41.8480    9.9010    5.3190 C.3   396  ASN396      0.1819
     36  C         42.9050   10.8450    5.9420 C.2   396  ASN396      0.2621
     37  O         42.6290   12.0180    6.1650 O.2   396  ASN396     -0.2715
     38  CB        41.0920    9.1550    6.4260 C.3   396  ASN396      0.1195
     39  CG        39.8190    8.4670    5.9320 C.2   396  ASN396      0.2630
     40  OD1       38.7240    9.0170    6.0230 O.2   396  ASN396     -0.2716
     41  ND2       39.9600    7.2530    5.4430 N.am  396  ASN396     -0.0877
     42  N         44.1080   10.3280    6.1990 N.am  397  ALA397     -0.1977
     43  CA        45.1960   11.1180    6.7900 C.3   397  ALA397      0.1597
     44  C         45.7290   12.2220    5.8670 C.2   397  ALA397      0.2287
     45  O         46.3090   13.2000    6.3460 O.2   397  ALA397     -0.2864
     46  CB        46.3470   10.1960    7.2290 C.3   397  ALA397      0.0319
     47  N         50.6450   11.2130   -8.6430 N.3   419  TRP419     -0.1227
     48  CA        50.3150    9.7860   -8.6870 C.3   419  TRP419      0.1737
     49  C         49.6400    9.2640   -7.4110 C.2   419  TRP419      0.2596
     50  O         49.2880    8.0840   -7.3460 O.2   419  TRP419     -0.2718
     51  CB        51.5700    8.9370   -8.9760 C.3   419  TRP419      0.0564
     52  CG        51.7970    8.5610  -10.4140 C.ar  419  TRP419      0.0003
     53  CD1       50.9390    8.7370  -11.4670 C.ar  419  TRP419      0.0946
     54  CD2       52.9550    7.9050  -10.9500 C.ar  419  TRP419      0.0152
     55  NE1       51.4920    8.2470  -12.6170 N.ar  419  TRP419     -0.2442
     56  CE2       52.7320    7.7320  -12.3340 C.ar  419  TRP419      0.0810
     57  CE3       54.1600    7.4550  -10.3950 C.ar  419  TRP419      0.0012
     58  CZ2       53.6670    7.1270  -13.1750 C.ar  419  TRP419      0.0191
     59  CZ3       55.0900    6.8440  -11.2290 C.ar  419  TRP419      0.0001
     60  CH2       54.8380    6.6900  -12.6080 C.ar  419  TRP419      0.0015
     61  N         49.4420   10.1110   -6.4020 N.am  420  GLY420     -0.1942
     62  CA        48.9690    9.6110   -5.1100 C.3   420  GLY420      0.2014
     63  C         49.8240    8.4430   -4.6150 C.2   420  GLY420      0.2639
     64  O         49.3120    7.3930   -4.2520 O.2   420  GLY420     -0.2714
     65  N         51.1400    8.6180   -4.6310 N.am  421  VAL421     -0.1963
     66  CA        52.0500    7.5820   -4.1540 C.3   421  VAL421      0.1727
     67  C         51.9440    7.4440   -2.6390 C.2   421  VAL421      0.2616
     68  O         52.0770    8.4230   -1.9100 O.2   421  VAL421     -0.2715
     69  CB        53.5290    7.9200   -4.4850 C.3   421  VAL421      0.0290
     70  CG1       54.4900    6.9060   -3.8130 C.3   421  VAL421      0.0023
     71  CG2       53.7540    7.9690   -5.9790 C.3   421  VAL421      0.0023
     72  N         51.6720    6.2330   -2.1730 N.am  422  MET422     -0.1977
     73  CA        52.0260    5.8430   -0.8210 C.3   422  MET422      0.1605
     74  C         53.4710    5.3740   -0.9030 C.2   422  MET422      0.2287
     75  O         53.8170    4.5860   -1.7780 O.2   422  MET422     -0.2864
     76  CB        51.1300    4.7100   -0.3120 C.3   422  MET422      0.0413
     77  CG        49.6480    5.0160   -0.2980 C.3   422  MET422      0.0598
     78  SD        49.1980    6.5380    0.5500 S.3   422  MET422     -0.1393
     79  CE        48.6030    7.5620   -0.8010 C.3   422  MET422      0.0692
     80  N         49.5200    8.1750    7.3320 N.3   445  GLY445     -0.1210
     81  CA        48.5090    7.1340    7.5150 C.3   445  GLY445      0.1956
     82  C         49.2710    5.8750    7.8760 C.2   445  GLY445      0.2612
     83  O         50.4230    5.7130    7.4660 O.2   445  GLY445     -0.2717
     84  N         48.6780    4.9950    8.6710 N.am  446  ASP446     -0.1959
     85  CA        49.4400    3.8250    9.1190 C.3   446  ASP446      0.1840
     86  C         49.7830    2.8700    7.9600 C.2   446  ASP446      0.2623
     87  O         50.8650    2.2860    7.9440 O.2   446  ASP446     -0.2715
     88  CB        48.8050    3.1210   10.3430 C.3   446  ASP446      0.1450
     89  CG        47.3890    2.6440   10.1110 C.2   446  ASP446      0.3671
     90  OD1       46.6710    3.2430    9.2830 O.co2 446  ASP446     -0.2456
     91  OD2       46.9810    1.6790   10.7950 O.co2 446  ASP446     -0.2456
     92  N         48.8940    2.7430    6.9760 N.am  447  SER447     -0.1936
     93  CA        49.2150    1.9800    5.7680 C.3   447  SER447      0.2055
     94  C         50.2670    2.7140    4.9410 C.2   447  SER447      0.2642
     95  O         51.2890    2.1320    4.5710 O.2   447  SER447     -0.2714
     96  CB        47.9750    1.7380    4.9180 C.3   447  SER447      0.2130
     97  OG        48.3140    1.0290    3.7420 O.3   447  SER447     -0.2179
     98  N         50.0220    3.9900    4.6560 N.am  448  ALA448     -0.1977
     99  CA        51.0080    4.8090    3.9460 C.3   448  ALA448      0.1597
    100  C         52.4120    4.6010    4.5130 C.2   448  ALA448      0.2287
    101  O         53.3520    4.2980    3.7750 O.2   448  ALA448     -0.2864
    102  CB        50.6170    6.2960    3.9980 C.3   448  ALA448      0.0319
    103  N         55.0260    1.6130    3.7220 N.3   451  PHE451     -0.1241
    104  CA        55.7240    1.5890    2.4480 C.3   451  PHE451      0.1605
    105  C         57.1860    2.0450    2.5930 C.2   451  PHE451      0.2264
    106  O         58.0380    1.6050    1.8240 O.2   451  PHE451     -0.2867
    107  CB        54.9890    2.4560    1.4180 C.3   451  PHE451      0.0534
    108  CG        53.7370    1.8230    0.8820 C.ar  451  PHE451     -0.0203
    109  CD1       52.5440    1.8950    1.5870 C.ar  451  PHE451     -0.0042
    110  CD2       53.7480    1.1560   -0.3330 C.ar  451  PHE451     -0.0042
    111  CE1       51.3820    1.3140    1.0910 C.ar  451  PHE451     -0.0003
    112  CE2       52.5880    0.5610   -0.8330 C.ar  451  PHE451     -0.0003
    113  CZ        51.4050    0.6470   -0.1170 C.ar  451  PHE451     -0.0000
    114  N         48.9570    8.1960   12.1340 N.3   471  MET471     -0.1245
    115  CA        47.5260    8.1850   12.3470 C.3   471  MET471      0.1570
    116  C         47.0900    6.7280   12.4640 C.2   471  MET471      0.2261
    117  O         46.4990    6.1600   11.5460 O.2   471  MET471     -0.2867
    118  CB        46.8090    8.8900   11.1980 C.3   471  MET471      0.0387
    119  CG        47.1640   10.3670   11.0430 C.3   471  MET471      0.0595
    120  SD        46.4190   11.4030   12.3130 S.3   471  MET471     -0.1393
    121  CE        47.6950   11.4010   13.5590 C.3   471  MET471      0.0692
    122  N         45.0170    4.1810   12.9390 N.3   473  ASN473     -0.1240
    123  CA        43.6200    3.6970   12.9840 C.3   473  ASN473      0.1653
    124  C         43.4650    2.1910   12.7590 C.2   473  ASN473      0.2266
    125  O         42.3710    1.6700   12.8750 O.2   473  ASN473     -0.2867
    126  CB        42.6850    4.5170   12.0680 C.3   473  ASN473      0.1155
    127  CG        42.8800    4.2500   10.5710 C.2   473  ASN473      0.2627
    128  OD1       43.9620    3.8800   10.1030 O.2   473  ASN473     -0.2716
    129  ND2       41.8160    4.4820    9.8050 N.am  473  ASN473     -0.0877
    130  N         44.3980    0.2090    9.9780 N.3   475  GLY475     -0.1210
    131  CA        44.0160   -0.2650    8.6480 C.3   475  GLY475      0.1956
    132  C         44.0900    0.7210    7.4950 C.2   475  GLY475      0.2612
    133  O         44.4680    1.8890    7.6530 O.2   475  GLY475     -0.2717
    134  N         43.7500    0.2120    6.3170 N.am  476  ILE476     -0.1965
    135  CA        43.6070    1.0110    5.1030 C.3   476  ILE476      0.1727
    136  C         42.1800    1.5690    5.1510 C.2   476  ILE476      0.2616
    137  O         41.2200    0.7960    5.1460 O.2   476  ILE476     -0.2715
    138  CB        43.8350    0.1290    3.8320 C.3   476  ILE476      0.0290
    139  CG1       45.1810   -0.6260    3.9320 C.3   476  ILE476      0.0022
    140  CG2       43.7690    0.9790    2.5610 C.3   476  ILE476      0.0023
    141  CD1       45.5780   -1.4220    2.6970 C.3   476  ILE476      0.0001
    142  N         42.0510    2.8970    5.2520 N.am  477  TYR477     -0.1974
    143  CA        40.7500    3.6090    5.3890 C.3   477  TYR477      0.1639
    144  C         40.0960    3.4430    6.7750 C.2   477  TYR477      0.2290
    145  O         39.7800    4.4190    7.4550 O.2   477  TYR477     -0.2864
    146  CB        39.7180    3.1920    4.3170 C.3   477  TYR477      0.0560
    147  CG        40.2190    3.1070    2.8910 C.ar  477  TYR477     -0.0198
    148  CD1       39.9370    1.9920    2.1090 C.ar  477  TYR477     -0.0009
    149  CD2       40.9680    4.1340    2.3200 C.ar  477  TYR477     -0.0009
    150  CE1       40.3780    1.8940    0.7970 C.ar  477  TYR477      0.0417
    151  CE2       41.4220    4.0440    1.0000 C.ar  477  TYR477      0.0417
    152  CZ        41.1260    2.9170    0.2450 C.ar  477  TYR477      0.1957
    153  OH        41.5550    2.8040   -1.0650 O.3   477  TYR477     -0.2866
@<TRIPOS>BOND
     1    58    60   ar
     2    58    56   ar
     3    55    56   ar
     4    55    53   ar
     5    60    59   ar
     6    56    54   ar
     7    53    52   ar
     8    59    57   ar
     9    54    52   ar
    10    54    57   ar
    11    52    51    1
    12    51    48    1
    13    48    47    1
    14    48    49    1
    15    49    50    2
    16    49    61   am
    17    61    62    1
    18    71    69    1
    19    62    63    1
    20    12    11    1
    21    10    11   ar
    22    10     8   ar
    23    65    63   am
    24    65    66    1
    25    63    64    2
    26    69    66    1
    27    69    70    1
    28    11     9   ar
    29     8     6   ar
    30    66    67    1
    31     1     2    1
    32     2     3    1
    33     2     5    1
    34     9     7   ar
    35     6     7   ar
    36     6     5    1
    37     4     3    2
    38    67    72   am
    39    67    68    2
    40    72    73    1
    41    75    74    2
    42   153   152    1
    43    74    73    1
    44   112   110   ar
    45   112   113   ar
    46    73    76    1
    47    79    78    1
    48   110   108   ar
    49    76    77    1
    50    77    78    1
    51   113   111   ar
    52   152   150   ar
    53   152   151   ar
    54   150   148   ar
    55   108   107    1
    56   108   109   ar
    57   151   149   ar
    58   111   109   ar
    59    28    27    2
    60   107   104    1
    61   106   105    2
    62   148   147   ar
    63    33    30    1
    64   149   147   ar
    65    30    29    1
    66    30    31    1
    67   104   105    1
    68   104   103    1
    69    27    29   am
    70    27    26    1
    71   140   138    1
    72   141   139    1
    73    25    26    1
    74   147   146    1
    75    32    31    2
    76    31    34   am
    77    97    96    1
    78   101   100    2
    79   138   139    1
    80   138   135    1
    81    99   102    1
    82    99   100    1
    83    99    98    1
    84   146   143    1
    85    34    35    1
    86    95    94    2
    87    98    94   am
    88    96    93    1
    89    94    93    1
    90   135   136    1
    91   135   134    1
    92   137   136    2
    93   136   142   am
    94   142   143    1
    95    35    36    1
    96    35    38    1
    97   143   144    1
    98    41    39   am
    99    93    92    1
   100    44    45    2
   101    44    43    1
   102    39    40    2
   103    39    38    1
   104    36    37    2
   105    36    42   am
   106    42    43    1
   107   134   132   am
   108   144   145    2
   109    43    46    1
   110    92    86   am
   111    80    81    1
   112    83    82    2
   113   132   133    2
   114   132   131    1
   115    81    82    1
   116    82    84   am
   117    87    86    2
   118    86    85    1
   119   131   130    1
   120    84    85    1
   121    85    88    1
   122    90    89   ar
   123    24    23    1
   124    21    23   ar
   125    21    19   ar
   126    23    22   ar
   127   129   127   am
   128    19    18   ar
   129    22    20   ar
   130   128   127    2
   131    89    88    1
   132    89    91   ar
   133    18    20   ar
   134    18    17    1
   135   127   126    1
   136    17    14    1
   137   119   118    1
   138   119   120    1
   139   118   115    1
   140   117   116    2
   141   126   123    1
   142   114   115    1
   143    14    15    1
   144    14    13    1
   145    16    15    2
   146   120   121    1
   147   115   116    1
   148   124   125    2
   149   124   123    1
   150   122   123    1
