@<TRIPOS>MOLECULE
tmp/2ji9B00.pdb
 82 78 0 0 0
SMALL
GASTEIGER

@<TRIPOS>ATOM
      1  N         72.3180    4.0270   -1.8280 N.3    25  VAL25      -0.1231
      2  CA        72.6190    2.7630   -1.1450 C.3    25  VAL25       0.1692
      3  C         73.8280    2.2060   -1.8810 C.2    25  VAL25       0.2592
      4  O         73.8590    2.1940   -3.1180 O.2    25  VAL25      -0.2718
      5  CB        71.4200    1.7690   -1.1750 C.3    25  VAL25       0.0266
      6  CG1       71.7560    0.4660   -0.4420 C.3    25  VAL25       0.0020
      7  CG2       70.1960    2.3960   -0.5540 C.3    25  VAL25       0.0020
      8  N         74.8440    1.8030   -1.1230 N.am   26  VAL26      -0.1966
      9  CA        76.1460    1.4770   -1.7000 C.3    26  VAL26       0.1727
     10  C         76.2410   -0.0200   -2.0400 C.2    26  VAL26       0.2617
     11  O         75.2440   -0.7280   -1.9800 O.2    26  VAL26      -0.2715
     12  CB        77.3060    1.9840   -0.8010 C.3    26  VAL26       0.0290
     13  CG1       77.2020    3.5070   -0.6280 C.3    26  VAL26       0.0023
     14  CG2       77.3110    1.2670    0.5510 C.3    26  VAL26       0.0023
     15  N         77.4250   -0.4730   -2.4480 N.am   27  GLY27      -0.1940
     16  CA        77.6260   -1.8260   -2.9930 C.3    27  GLY27       0.2014
     17  C         78.2850   -1.7810   -4.3670 C.2    27  GLY27       0.2638
     18  O         78.5010   -0.6990   -4.9200 O.2    27  GLY27      -0.2714
     19  N         78.6020   -2.9590   -4.9100 N.am   28  ILE28      -0.1977
     20  CA        79.2020   -3.0980   -6.2390 C.3    28  ILE28       0.1596
     21  C         78.2970   -2.5030   -7.3370 C.2    28  ILE28       0.2287
     22  O         77.0870   -2.7720   -7.3530 O.2    28  ILE28      -0.2864
     23  CB        79.4500   -4.5930   -6.5850 C.3    28  ILE28       0.0276
     24  CG1       80.5800   -5.1780   -5.7280 C.3    28  ILE28       0.0022
     25  CG2       79.7740   -4.7710   -8.0760 C.3    28  ILE28       0.0022
     26  CD1       80.7520   -6.6940   -5.8870 C.3    28  ILE28       0.0001
     27  N         66.5870    1.7460   -2.0640 N.3    50  GLU50      -0.1245
     28  CA        66.8930    2.8220   -3.0270 C.3    50  GLU50       0.1567
     29  C         65.6680    3.6470   -3.4160 C.2    50  GLU50       0.2260
     30  O         65.7840    4.8280   -3.7680 O.2    50  GLU50      -0.2867
     31  CB        67.5570    2.2660   -4.2890 C.3    50  GLU50       0.0388
     32  CG        68.9730    1.6710   -4.0600 C.3    50  GLU50       0.1160
     33  CD        68.9630    0.1750   -3.7330 C.2    50  GLU50       0.3649
     34  OE1       67.8580   -0.4090   -3.5570 O.co2  50  GLU50      -0.2457
     35  OE2       70.0650   -0.4320   -3.6750 O.co2  50  GLU50      -0.2457
     36  N         73.1680    0.9220   -7.2930 N.3    73  VAL73      -0.1245
     37  CA        73.8900   -0.1550   -7.9670 C.3    73  VAL73       0.1561
     38  C         73.1380   -0.6300   -9.2320 C.2    73  VAL73       0.2260
     39  O         72.1480   -0.0130   -9.6600 O.2    73  VAL73      -0.2867
     40  CB        74.0950   -1.3520   -7.0060 C.3    73  VAL73       0.0252
     41  CG1       74.8190   -0.8930   -5.7420 C.3    73  VAL73       0.0019
     42  CG2       72.7640   -2.0160   -6.6790 C.3    73  VAL73       0.0019
     43  N         68.8850   -4.8030   -9.7450 N.3    76  PRO76      -0.2102
     44  CA        67.8160   -4.6540   -8.7670 C.3    76  PRO76       0.1504
     45  C         67.8460   -3.3220   -8.0200 C.2    76  PRO76       0.2576
     46  O         66.7830   -2.7700   -7.7100 O.2    76  PRO76      -0.2718
     47  CB        68.0580   -5.8220   -7.8110 C.3    76  PRO76       0.0282
     48  CG        69.4710   -6.0910   -7.9000 C.3    76  PRO76       0.0208
     49  CD        69.8250   -5.8600   -9.3390 C.3    76  PRO76       0.0893
     50  N         69.0480   -2.8120   -7.7420 N.am   77  GLY77      -0.1957
     51  CA        69.2080   -1.5140   -7.1020 C.3    77  GLY77       0.1869
     52  C         68.6840   -0.4080   -7.9870 C.2    77  GLY77       0.2309
     53  O         67.8370    0.3730   -7.5620 O.2    77  GLY77      -0.2863
     54  N         64.7100   -0.3400   -8.2440 N.3    80  ASN80      -0.1240
     55  CA        64.1450    0.3570   -7.0920 C.3    80  ASN80       0.1653
     56  C         64.2040    1.8770   -7.2420 C.2    80  ASN80       0.2266
     57  O         63.2190    2.5740   -7.0020 O.2    80  ASN80      -0.2867
     58  CB        64.8740   -0.0390   -5.8110 C.3    80  ASN80       0.1155
     59  CG        64.6740   -1.4940   -5.4300 C.2    80  ASN80       0.2627
     60  OD1       63.6510   -2.1230   -5.7720 O.2    80  ASN80      -0.2716
     61  ND2       65.6490   -2.0400   -4.6790 N.am   80  ASN80      -0.0877
     62  N         76.8150  -10.3480  -13.9800 N.3   114  TYR114     -0.1227
     63  CA        76.3880   -9.8970  -12.6610 C.3   114  TYR114      0.1736
     64  C         75.3890   -8.7610  -12.8320 C.2   114  TYR114      0.2595
     65  O         75.6740   -7.7910  -13.5400 O.2   114  TYR114     -0.2718
     66  CB        77.5780   -9.4000  -11.8380 C.3   114  TYR114      0.0548
     67  CG        77.1990   -8.9240  -10.4500 C.ar  114  TYR114     -0.0200
     68  CD1       76.8600   -9.8360   -9.4540 C.ar  114  TYR114     -0.0009
     69  CD2       77.1740   -7.5660  -10.1330 C.ar  114  TYR114     -0.0009
     70  CE1       76.5030   -9.4150   -8.1840 C.ar  114  TYR114      0.0417
     71  CE2       76.8260   -7.1350   -8.8610 C.ar  114  TYR114      0.0417
     72  CZ        76.4900   -8.0670   -7.8880 C.ar  114  TYR114      0.1957
     73  OH        76.1310   -7.6570   -6.6170 O.3   114  TYR114     -0.2866
     74  N         74.2280   -8.8920  -12.1890 N.am  115  GLU115     -0.1979
     75  CA        73.1740   -7.8730  -12.2360 C.3   115  GLU115      0.1602
     76  C         73.0170   -7.3180  -13.6580 C.2   115  GLU115      0.2287
     77  O         73.2560   -6.1350  -13.9180 O.2   115  GLU115     -0.2864
     78  CB        73.4340   -6.7640  -11.1940 C.3   115  GLU115      0.0415
     79  CG        73.4010   -7.2970   -9.7580 C.3   115  GLU115      0.1163
     80  CD        73.4310   -6.2250   -8.6710 C.2   115  GLU115      0.3649
     81  OE1       73.6820   -5.0320   -8.9690 O.co2 115  GLU115     -0.2457
     82  OE2       73.1880   -6.5900   -7.4940 O.co2 115  GLU115     -0.2457
@<TRIPOS>BOND
     1    62    63    1
     2    77    76    2
     3    76    75    1
     4    65    64    2
     5    64    63    1
     6    64    74   am
     7    63    66    1
     8    75    74    1
     9    75    78    1
    10    66    67    1
    11    78    79    1
    12    67    69   ar
    13    67    68   ar
    14    69    71   ar
    15    79    80    1
    16    43    49    1
    17    43    44    1
    18    39    38    2
    19    68    70   ar
    20    49    48    1
    21    38    37    1
    22    81    80   ar
    23    71    72   ar
    24    44    45    1
    25    44    47    1
    26    80    82   ar
    27    54    55    1
    28    70    72   ar
    29    25    23    1
    30    45    50   am
    31    45    46    2
    32    52    53    2
    33    52    51    1
    34    37    36    1
    35    37    40    1
    36    48    47    1
    37    72    73    1
    38    50    51    1
    39    22    21    2
    40    21    20    1
    41    56    55    1
    42    56    57    2
    43    55    58    1
    44    40    42    1
    45    40    41    1
    46    23    20    1
    47    23    24    1
    48    20    19    1
    49    26    24    1
    50    58    59    1
    51    60    59    2
    52    59    61   am
    53    18    17    2
    54    19    17   am
    55    17    16    1
    56    31    32    1
    57    31    28    1
    58    32    33    1
    59    30    29    2
    60    33    35   ar
    61    33    34   ar
    62    29    28    1
    63     4     3    2
    64    28    27    1
    65    16    15    1
    66    15    10   am
    67    10    11    2
    68    10     9    1
    69     3     2    1
    70     3     8   am
    71     1     2    1
    72     9     8    1
    73     9    12    1
    74     5     2    1
    75     5     7    1
    76     5     6    1
    77    12    13    1
    78    12    14    1
