@<TRIPOS>MOLECULE
tmp/2jibB00.pdb
 82 78 0 0 0
SMALL
GASTEIGER

@<TRIPOS>ATOM
      1  N         78.9410    5.6770   -2.2420 N.3    25  VAL25      -0.1231
      2  CA        79.3400    4.4930   -1.4960 C.3    25  VAL25       0.1692
      3  C         80.5650    3.8950   -2.1880 C.2    25  VAL25       0.2592
      4  O         80.5980    3.7260   -3.4040 O.2    25  VAL25      -0.2718
      5  CB        78.2140    3.4400   -1.4040 C.3    25  VAL25       0.0266
      6  CG1       78.6670    2.2530   -0.5490 C.3    25  VAL25       0.0020
      7  CG2       76.9500    4.0510   -0.8270 C.3    25  VAL25       0.0020
      8  N         81.5790    3.5900   -1.4040 N.am   26  VAL26      -0.1966
      9  CA        82.8640    3.1810   -1.9550 C.3    26  VAL26       0.1727
     10  C         82.8940    1.6660   -2.2060 C.2    26  VAL26       0.2617
     11  O         81.8570    0.9920   -2.1090 O.2    26  VAL26      -0.2715
     12  CB        84.0180    3.6760   -1.0650 C.3    26  VAL26       0.0290
     13  CG1       83.9660    5.2030   -0.9770 C.3    26  VAL26       0.0023
     14  CG2       83.9510    3.0440    0.3130 C.3    26  VAL26       0.0023
     15  N         84.0700    1.1550   -2.5670 N.am   27  GLY27      -0.1940
     16  CA        84.2350   -0.2260   -3.0050 C.3    27  GLY27       0.2014
     17  C         84.8220   -0.2460   -4.4030 C.2    27  GLY27       0.2638
     18  O         84.8790    0.7930   -5.0670 O.2    27  GLY27      -0.2714
     19  N         85.2370   -1.4360   -4.8460 N.am   28  ILE28      -0.1977
     20  CA        85.8970   -1.6320   -6.1490 C.3    28  ILE28       0.1596
     21  C         85.0270   -1.1310   -7.3100 C.2    28  ILE28       0.2287
     22  O         83.8400   -1.4620   -7.3670 O.2    28  ILE28      -0.2864
     23  CB        86.1870   -3.1430   -6.4380 C.3    28  ILE28       0.0276
     24  CG1       87.1070   -3.7630   -5.3880 C.3    28  ILE28       0.0022
     25  CG2       86.8200   -3.3190   -7.8180 C.3    28  ILE28       0.0022
     26  CD1       87.1440   -5.2970   -5.4290 C.3    28  ILE28       0.0001
     27  N         73.5030    3.4470   -2.2800 N.3    50  GLU50      -0.1245
     28  CA        73.8310    4.4420   -3.3070 C.3    50  GLU50       0.1567
     29  C         72.6200    5.2670   -3.7340 C.2    50  GLU50       0.2260
     30  O         72.7590    6.4110   -4.1820 O.2    50  GLU50      -0.2867
     31  CB        74.4770    3.7950   -4.5250 C.3    50  GLU50       0.0388
     32  CG        75.8300    3.1290   -4.2520 C.3    50  GLU50       0.1160
     33  CD        75.7210    1.6530   -3.8850 C.2    50  GLU50       0.3649
     34  OE1       74.5830    1.1450   -3.7050 O.co2  50  GLU50      -0.2457
     35  OE2       76.7820    0.9990   -3.7920 O.co2  50  GLU50      -0.2457
     36  N         79.9010    2.2280   -7.3740 N.3    73  VAL73      -0.1245
     37  CA        80.6700    1.1550   -7.9840 C.3    73  VAL73       0.1561
     38  C         79.9000    0.6200   -9.1940 C.2    73  VAL73       0.2260
     39  O         78.8350    1.1470   -9.5560 O.2    73  VAL73      -0.2867
     40  CB        80.9260   -0.0130   -6.9910 C.3    73  VAL73       0.0252
     41  CG1       81.7470    0.4650   -5.8040 C.3    73  VAL73       0.0019
     42  CG2       79.6000   -0.6520   -6.5540 C.3    73  VAL73       0.0019
     43  N         75.7780   -3.5640   -9.5080 N.3    76  PRO76      -0.2102
     44  CA        74.7640   -3.3790   -8.4580 C.3    76  PRO76       0.1504
     45  C         74.7380   -1.9760   -7.8470 C.2    76  PRO76       0.2576
     46  O         73.6600   -1.4330   -7.5800 O.2    76  PRO76      -0.2718
     47  CB        75.1520   -4.4250   -7.4040 C.3    76  PRO76       0.0282
     48  CG        76.5760   -4.7320   -7.6600 C.3    76  PRO76       0.0208
     49  CD        76.7510   -4.6110   -9.1390 C.3    76  PRO76       0.0893
     50  N         75.9140   -1.3930   -7.6330 N.am   77  GLY77      -0.1957
     51  CA        75.9980   -0.0560   -7.0760 C.3    77  GLY77       0.1869
     52  C         75.4720    0.9790   -8.0350 C.2    77  GLY77       0.2309
     53  O         74.6520    1.8200   -7.6620 O.2    77  GLY77      -0.2863
     54  N         71.5970    1.0300   -8.2500 N.3    80  ASN80      -0.1240
     55  CA        71.0390    1.7850   -7.1270 C.3    80  ASN80       0.1653
     56  C         71.1410    3.3010   -7.3520 C.2    80  ASN80       0.2266
     57  O         70.1830    4.0350   -7.1240 O.2    80  ASN80      -0.2867
     58  CB        71.7410    1.3960   -5.8220 C.3    80  ASN80       0.1155
     59  CG        71.4820   -0.0520   -5.4120 C.2    80  ASN80       0.2627
     60  OD1       70.4610   -0.6480   -5.7730 O.2    80  ASN80      -0.2716
     61  ND2       72.4010   -0.6150   -4.6240 N.am   80  ASN80      -0.0877
     62  N         83.6240   -9.3960  -13.1510 N.3   114  TYR114     -0.1227
     63  CA        83.2300   -8.8370  -11.8680 C.3   114  TYR114      0.1736
     64  C         82.2320   -7.6970  -12.1010 C.2   114  TYR114      0.2595
     65  O         82.5050   -6.7750  -12.8710 O.2   114  TYR114     -0.2718
     66  CB        84.4490   -8.2960  -11.0990 C.3   114  TYR114      0.0548
     67  CG        84.1140   -7.6690   -9.7570 C.ar  114  TYR114     -0.0200
     68  CD1       83.9580   -8.4520   -8.6170 C.ar  114  TYR114     -0.0009
     69  CD2       83.9470   -6.2940   -9.6310 C.ar  114  TYR114     -0.0009
     70  CE1       83.6430   -7.8840   -7.3890 C.ar  114  TYR114      0.0417
     71  CE2       83.6260   -5.7160   -8.4100 C.ar  114  TYR114      0.0417
     72  CZ        83.4740   -6.5130   -7.2930 C.ar  114  TYR114      0.1957
     73  OH        83.1550   -5.9320   -6.0810 O.3   114  TYR114     -0.2866
     74  N         81.0620   -7.8090  -11.4740 N.am  115  GLU115     -0.1979
     75  CA        79.9740   -6.8270  -11.6000 C.3   115  GLU115      0.1602
     76  C         79.7880   -6.3710  -13.0470 C.2   115  GLU115      0.2287
     77  O         79.9840   -5.1980  -13.3830 O.2   115  GLU115     -0.2864
     78  CB        80.1790   -5.6470  -10.6420 C.3   115  GLU115      0.0415
     79  CG        80.2120   -6.1130   -9.1850 C.3   115  GLU115      0.1163
     80  CD        80.2790   -4.9970   -8.1640 C.2   115  GLU115      0.3649
     81  OE1       80.4960   -3.8300   -8.5390 O.co2 115  GLU115     -0.2457
     82  OE2       80.1240   -5.3050   -6.9640 O.co2 115  GLU115     -0.2457
@<TRIPOS>BOND
     1    77    76    2
     2    62    63    1
     3    76    75    1
     4    65    64    2
     5    64    63    1
     6    64    74   am
     7    63    66    1
     8    75    74    1
     9    75    78    1
    10    66    67    1
    11    78    79    1
    12    67    69   ar
    13    67    68   ar
    14    69    71   ar
    15    39    38    2
    16    43    49    1
    17    43    44    1
    18    38    37    1
    19    79    80    1
    20    49    48    1
    21    68    70   ar
    22    81    80   ar
    23    44    45    1
    24    44    47    1
    25    71    72   ar
    26    54    55    1
    27    80    82   ar
    28    52    53    2
    29    52    51    1
    30    37    36    1
    31    37    40    1
    32    45    50   am
    33    45    46    2
    34    25    23    1
    35    48    47    1
    36    50    51    1
    37    70    72   ar
    38    22    21    2
    39    56    55    1
    40    56    57    2
    41    21    20    1
    42    72    73    1
    43    55    58    1
    44    40    42    1
    45    40    41    1
    46    23    20    1
    47    23    24    1
    48    20    19    1
    49    58    59    1
    50    60    59    2
    51    26    24    1
    52    59    61   am
    53    18    17    2
    54    19    17   am
    55    31    32    1
    56    31    28    1
    57    17    16    1
    58    32    33    1
    59    30    29    2
    60    33    35   ar
    61    33    34   ar
    62    29    28    1
    63     4     3    2
    64    28    27    1
    65    16    15    1
    66    15    10   am
    67     1     2    1
    68    10    11    2
    69    10     9    1
    70     3     2    1
    71     3     8   am
    72     9     8    1
    73     9    12    1
    74     2     5    1
    75     5     7    1
    76     5     6    1
    77    12    13    1
    78    12    14    1
