@<TRIPOS>MOLECULE
tmp/2jibB04.pdb
 79 75 0 0 0
SMALL
GASTEIGER

@<TRIPOS>ATOM
      1  N         71.4800   24.4260   -5.6850 N.3    64  GLU64      -0.1231
      2  CA        72.6340   25.2460   -6.0780 C.3    64  GLU64       0.1699
      3  C         72.6120   25.6440   -7.5540 C.2    64  GLU64       0.2592
      4  O         73.1570   26.6800   -7.9260 O.2    64  GLU64      -0.2718
      5  CB        73.9340   24.4870   -5.8040 C.3    64  GLU64       0.0402
      6  CG        74.2520   24.2740   -4.3490 C.3    64  GLU64       0.1161
      7  CD        75.6510   23.7330   -4.1620 C.2    64  GLU64       0.3649
      8  OE1       76.5000   24.4580   -3.6050 O.co2  64  GLU64      -0.2457
      9  OE2       75.9130   22.5970   -4.6010 O.co2  64  GLU64      -0.2457
     10  N         71.9980   24.8100   -8.3900 N.am   65  GLY65      -0.1957
     11  CA        72.0590   24.9980   -9.8350 C.3    65  GLY65       0.1869
     12  C         73.4260   24.6710  -10.4110 C.2    65  GLY65       0.2309
     13  O         73.8550   25.2740  -11.3920 O.2    65  GLY65      -0.2863
     14  N         73.4350   21.0130  -16.8410 N.3   151  VAL151     -0.1245
     15  CA        72.9670   22.3780  -16.5280 C.3   151  VAL151      0.1561
     16  C         72.2350   23.1000  -17.6640 C.2   151  VAL151      0.2260
     17  O         71.3170   23.8770  -17.3970 O.2   151  VAL151     -0.2867
     18  CB        74.1100   23.2920  -16.0070 C.3   151  VAL151      0.0252
     19  CG1       74.5880   22.8120  -14.6490 C.3   151  VAL151      0.0019
     20  CG2       75.2440   23.3760  -17.0070 C.3   151  VAL151      0.0019
     21  N         75.5180   27.1870  -18.5170 N.3   187  ALA187     -0.1231
     22  CA        74.0610   27.3650  -18.4570 C.3   187  ALA187      0.1679
     23  C         73.7390   28.7420  -19.0180 C.2   187  ALA187      0.2434
     24  O         73.5660   29.7030  -18.2570 O.2   187  ALA187     -0.2733
     25  CB        73.5640   27.2420  -17.0210 C.3   187  ALA187      0.0304
     26  N         73.7070   28.8640  -20.3580 N.am  188  PRO188     -0.2718
     27  CA        73.5210   30.1810  -20.9540 C.3   188  PRO188      0.1535
     28  C         72.0790   30.6730  -20.8650 C.2   188  PRO188      0.2598
     29  O         71.1510   29.8630  -20.7980 O.2   188  PRO188     -0.2715
     30  CB        73.9170   29.9490  -22.4160 C.3   188  PRO188      0.0310
     31  CG        73.5610   28.5350  -22.6620 C.3   188  PRO188      0.0237
     32  CD        73.8770   27.8230  -21.3880 C.3   188  PRO188      0.0939
     33  N         71.9100   31.9940  -20.8530 N.am  189  ALA189     -0.1978
     34  CA        70.5950   32.6040  -20.9890 C.3   189  ALA189      0.1597
     35  C         70.0430   32.3250  -22.3870 C.2   189  ALA189      0.2287
     36  O         70.7940   32.2720  -23.3720 O.2   189  ALA189     -0.2864
     37  CB        70.6720   34.1050  -20.7540 C.3   189  ALA189      0.0319
     38  N         63.9380   26.9800   -9.1200 N.3   220  TYR220     -0.1227
     39  CA        65.2800   26.6180   -9.5800 C.3   220  TYR220      0.1736
     40  C         66.0040   27.7640  -10.3030 C.2   220  TYR220      0.2595
     41  O         67.2250   27.8750  -10.2330 O.2   220  TYR220     -0.2718
     42  CB        65.1990   25.4100  -10.5100 C.3   220  TYR220      0.0548
     43  CG        66.5260   25.0270  -11.1110 C.ar  220  TYR220     -0.0200
     44  CD1       67.4400   24.2630  -10.3950 C.ar  220  TYR220     -0.0009
     45  CD2       66.8790   25.4410  -12.3880 C.ar  220  TYR220     -0.0009
     46  CE1       68.6770   23.9180  -10.9350 C.ar  220  TYR220      0.0417
     47  CE2       68.1130   25.1010  -12.9340 C.ar  220  TYR220      0.0417
     48  CZ        69.0060   24.3390  -12.2020 C.ar  220  TYR220      0.1957
     49  OH        70.2220   23.9900  -12.7510 O.3   220  TYR220     -0.2866
     50  N         65.2430   28.6020  -10.9980 N.am  221  ALA221     -0.1966
     51  CA        65.7950   29.6770  -11.8210 C.3   221  ALA221      0.1728
     52  C         66.5780   30.7140  -11.0300 C.2   221  ALA221      0.2616
     53  O         67.4560   31.3760  -11.5920 O.2   221  ALA221     -0.2715
     54  CB        64.6730   30.3600  -12.6110 C.3   221  ALA221      0.0334
     55  N         66.2500   30.8610   -9.7440 N.am  222  GLN222     -0.1977
     56  CA        66.8920   31.8240   -8.8440 C.3   222  GLN222      0.1601
     57  C         66.7700   33.2430   -9.3800 C.2   222  GLN222      0.2287
     58  O         67.7580   33.9140   -9.6680 O.2   222  GLN222     -0.2864
     59  CB        68.3540   31.4540   -8.5620 C.3   222  GLN222      0.0394
     60  CG        68.5230   30.0660   -7.9170 C.3   222  GLN222      0.0908
     61  CD        69.8290   29.9090   -7.1390 C.2   222  GLN222      0.2608
     62  OE1       70.3990   30.8840   -6.6400 O.2   222  GLN222     -0.2717
     63  NE2       70.2950   28.6740   -7.0210 N.am  222  GLN222     -0.0878
     64  N         62.0140   26.6610  -20.7680 N.3   301  ILE301     -0.1245
     65  CA        63.2360   26.5820  -21.5760 C.3   301  ILE301      0.1561
     66  C         63.1290   25.4770  -22.6340 C.2   301  ILE301      0.2260
     67  O         63.7750   25.5400  -23.6750 O.2   301  ILE301     -0.2867
     68  CB        64.4890   26.3600  -20.6870 C.3   301  ILE301      0.0252
     69  CG1       65.7610   26.7960  -21.4240 C.3   301  ILE301      0.0019
     70  CG2       64.5880   24.8820  -20.2190 C.3   301  ILE301      0.0019
     71  CD1       66.6670   27.6560  -20.6010 C.3   301  ILE301      0.0001
     72  N         64.8510   30.8870  -20.9010 N.3   319  ASP319     -0.1239
     73  CA        65.1070   30.7640  -19.4670 C.3   319  ASP319      0.1674
     74  C         64.2340   31.7870  -18.7340 C.2   319  ASP319      0.2266
     75  O         64.0620   32.9110  -19.2150 O.2   319  ASP319     -0.2867
     76  CB        66.6000   30.9240  -19.1330 C.3   319  ASP319      0.1410
     77  CG        67.0520   32.3790  -19.0810 C.2   319  ASP319      0.3668
     78  OD1       67.4550   32.9110  -20.1240 O.co2 319  ASP319     -0.2456
     79  OD2       67.0300   32.9840  -17.9930 O.co2 319  ASP319     -0.2456
@<TRIPOS>BOND
     1    67    66    2
     2    36    35    2
     3    31    30    1
     4    31    32    1
     5    66    65    1
     6    30    27    1
     7    35    34    1
     8    65    64    1
     9    65    68    1
    10    69    68    1
    11    69    71    1
    12    32    26    1
    13    34    33    1
    14    34    37    1
    15    27    28    1
    16    27    26    1
    17    72    73    1
    18    28    33   am
    19    28    29    2
    20    68    70    1
    21    26    23   am
    22    78    77   ar
    23    73    76    1
    24    73    74    1
    25    75    74    2
    26    76    77    1
    27    77    79   ar
    28    23    22    1
    29    23    24    2
    30    21    22    1
    31    22    25    1
    32    16    17    2
    33    16    15    1
    34    20    18    1
    35    14    15    1
    36    15    18    1
    37    18    19    1
    38    47    45   ar
    39    47    48   ar
    40    49    48    1
    41    54    51    1
    42    45    43   ar
    43    48    46   ar
    44    51    52    1
    45    51    50    1
    46    53    52    2
    47    13    12    2
    48    43    42    1
    49    43    44   ar
    50    52    55   am
    51    50    40   am
    52    46    44   ar
    53    42    39    1
    54    12    11    1
    55    40    41    2
    56    40    39    1
    57    11    10    1
    58    55    56    1
    59    58    57    2
    60    39    38    1
    61    57    56    1
    62    56    59    1
    63    59    60    1
    64    10     3   am
    65     4     3    2
    66    60    61    1
    67     3     2    1
    68    61    63   am
    69    61    62    2
    70     2     5    1
    71     2     1    1
    72     5     6    1
    73     9     7   ar
    74     6     7    1
    75     7     8   ar
