@<TRIPOS>MOLECULE
tmp/2jibB02.pdb
 178 169 0 0 0
SMALL
GASTEIGER

@<TRIPOS>ATOM
      1  N         62.5990   15.3310  -12.7430 N.3    91  ASN91      -0.1225
      2  CA        62.3170   16.5590  -12.0010 C.3    91  ASN91       0.1785
      3  C         63.1030   17.7730  -12.5100 C.2    91  ASN91       0.2597
      4  O         62.8830   18.8870  -12.0420 O.2    91  ASN91      -0.2718
      5  CB        62.6300   16.3420  -10.5090 C.3    91  ASN91       0.1169
      6  CG        61.5360   15.5840   -9.7810 C.2    91  ASN91       0.2627
      7  OD1       60.4900   16.1420   -9.4660 O.2    91  ASN91      -0.2716
      8  ND2       61.7810   14.3120   -9.4980 N.am   91  ASN91      -0.0877
      9  N         64.0290   17.5360  -13.4450 N.am   92  CYS92      -0.1970
     10  CA        64.8390   18.5680  -14.0990 C.3    92  CYS92       0.1712
     11  C         65.9180   19.1110  -13.1640 C.2    92  CYS92       0.2296
     12  O         66.1580   20.3260  -13.0970 O.2    92  CYS92      -0.2864
     13  CB        63.9800   19.7080  -14.6830 C.3    92  CYS92       0.0983
     14  SG        62.5410   19.1730  -15.6520 S.3    92  CYS92      -0.0798
     15  N         69.9260   23.7810  -21.2650 N.3   153  GLY153     -0.1210
     16  CA        68.5600   23.4340  -21.7010 C.3   153  GLY153      0.1956
     17  C         67.6680   23.1900  -20.5070 C.2   153  GLY153      0.2612
     18  O         67.8070   23.8500  -19.4850 O.2   153  GLY153     -0.2717
     19  N         66.7360   22.2490  -20.6340 N.am  154  ARG154     -0.1966
     20  CA        66.0800   21.6810  -19.4630 C.3   154  ARG154      0.1714
     21  C         67.1440   20.8950  -18.6880 C.2   154  ARG154      0.2458
     22  O         67.7180   19.9500  -19.2390 O.2   154  ARG154     -0.2730
     23  CB        64.9350   20.7530  -19.8810 C.3   154  ARG154      0.0347
     24  CG        64.5060   19.7730  -18.8060 C.3   154  ARG154      0.0492
     25  CD        63.3840   18.8980  -19.2890 C.3   154  ARG154      0.2205
     26  NE        62.1270   19.6310  -19.3450 N.pl3 154  ARG154     -0.0865
     27  CZ        60.9960   19.1270  -19.8260 C.cat 154  ARG154      0.5346
     28  NH1       60.9660   17.8850  -20.3010 N.pl3 154  ARG154      0.1354
     29  NH2       59.8950   19.8650  -19.8420 N.pl3 154  ARG154      0.1354
     30  N         67.4250   21.2780  -17.4180 N.am  155  PRO155     -0.2727
     31  CA        68.5080   20.6080  -16.6950 C.3   155  PRO155      0.1402
     32  C         68.1530   19.1640  -16.3470 C.2   155  PRO155      0.2269
     33  O         66.9920   18.8170  -16.3700 O.2   155  PRO155     -0.2865
     34  CB        68.6710   21.4580  -15.4280 C.3   155  PRO155      0.0296
     35  CG        67.9000   22.7170  -15.6830 C.3   155  PRO155      0.0237
     36  CD        66.7980   22.3210  -16.5880 C.3   155  PRO155      0.0939
     37  N         55.9210   26.9710  -10.6960 N.3   215  GLY215     -0.1210
     38  CA        56.4000   25.6120  -10.4730 C.3   215  GLY215      0.1956
     39  C         57.8350   25.6660  -10.0060 C.2   215  GLY215      0.2612
     40  O         58.4100   26.7610   -9.8630 O.2   215  GLY215     -0.2717
     41  N         58.4220   24.4880   -9.7990 N.am  216  LYS216     -0.1965
     42  CA        59.7360   24.3760   -9.1870 C.3   216  LYS216      0.1728
     43  C         60.8790   24.7180  -10.1370 C.2   216  LYS216      0.2616
     44  O         61.9890   24.9760   -9.6920 O.2   216  LYS216     -0.2715
     45  CB        59.9290   22.9870   -8.5540 C.3   216  LYS216      0.0311
     46  CG        60.0820   21.8160   -9.4970 C.3   216  LYS216      0.0038
     47  CD        60.4490   20.5610   -8.7070 C.3   216  LYS216      0.0206
     48  CE        60.5800   19.3290   -9.5870 C.3   216  LYS216      0.1093
     49  NZ        59.2730   18.7530   -9.9880 N.3   216  LYS216     -0.1314
     50  N         60.6080   24.7270  -11.4380 N.am  217  GLY217     -0.1955
     51  CA        61.5490   25.2630  -12.4160 C.3   217  GLY217      0.1869
     52  C         61.7700   26.7560  -12.2440 C.2   217  GLY217      0.2309
     53  O         62.8800   27.2590  -12.4720 O.2   217  GLY217     -0.2863
     54  N         63.9380   26.9800   -9.1200 N.3   220  TYR220     -0.1227
     55  CA        65.2800   26.6180   -9.5800 C.3   220  TYR220      0.1736
     56  C         66.0040   27.7640  -10.3030 C.2   220  TYR220      0.2595
     57  O         67.2250   27.8750  -10.2330 O.2   220  TYR220     -0.2718
     58  CB        65.1990   25.4100  -10.5100 C.3   220  TYR220      0.0548
     59  CG        66.5260   25.0270  -11.1110 C.ar  220  TYR220     -0.0200
     60  CD1       67.4400   24.2630  -10.3950 C.ar  220  TYR220     -0.0009
     61  CD2       66.8790   25.4410  -12.3880 C.ar  220  TYR220     -0.0009
     62  CE1       68.6770   23.9180  -10.9350 C.ar  220  TYR220      0.0417
     63  CE2       68.1130   25.1010  -12.9340 C.ar  220  TYR220      0.0417
     64  CZ        69.0060   24.3390  -12.2020 C.ar  220  TYR220      0.1957
     65  OH        70.2220   23.9900  -12.7510 O.3   220  TYR220     -0.2866
     66  N         65.2430   28.6020  -10.9980 N.am  221  ALA221     -0.1980
     67  CA        65.7950   29.6770  -11.8210 C.3   221  ALA221      0.1597
     68  C         66.5780   30.7140  -11.0300 C.2   221  ALA221      0.2287
     69  O         67.4560   31.3760  -11.5920 O.2   221  ALA221     -0.2864
     70  CB        64.6730   30.3600  -12.6110 C.3   221  ALA221      0.0319
     71  N         53.3580   25.6440   -6.8110 N.3   241  MET241     -0.1230
     72  CA        53.3670   24.1850   -6.7630 C.3   241  MET241      0.1702
     73  C         54.1670   23.7630   -5.5340 C.2   241  MET241      0.2593
     74  O         54.8090   24.5980   -4.8920 O.2   241  MET241     -0.2718
     75  CB        53.9670   23.6020   -8.0450 C.3   241  MET241      0.0401
     76  CG        53.1780   23.9470   -9.3110 C.3   241  MET241      0.0596
     77  SD        51.5520   23.1490   -9.3810 S.3   241  MET241     -0.1393
     78  CE        52.0370   21.4220   -9.4320 C.3   241  MET241      0.0692
     79  N         54.1230   22.4710   -5.2170 N.am  242  GLY242     -0.1942
     80  CA        54.7740   21.9190   -4.0260 C.3   242  GLY242      0.2014
     81  C         56.1220   22.5110   -3.6380 C.2   242  GLY242      0.2638
     82  O         56.2990   22.9530   -2.5070 O.2   242  GLY242     -0.2714
     83  N         57.0820   22.5160   -4.5520 N.am  243  MET243     -0.1976
     84  CA        58.4170   23.0220   -4.2110 C.3   243  MET243      0.1605
     85  C         58.6360   24.4720   -4.6150 C.2   243  MET243      0.2287
     86  O         59.7140   25.0130   -4.3970 O.2   243  MET243     -0.2864
     87  CB        59.5030   22.1170   -4.7830 C.3   243  MET243      0.0413
     88  CG        59.5620   20.7770   -4.0670 C.3   243  MET243      0.0598
     89  SD        60.8060   19.6620   -4.7230 S.3   243  MET243     -0.1393
     90  CE        62.3010   20.6630   -4.6670 C.3   243  MET243      0.0692
     91  N         57.6280   27.8330  -15.4050 N.3   274  GLY274     -0.1210
     92  CA        58.4600   26.7160  -14.9760 C.3   274  GLY274      0.1956
     93  C         57.6420   25.6060  -14.3540 C.2   274  GLY274      0.2612
     94  O         58.0910   24.9630  -13.4080 O.2   274  GLY274     -0.2717
     95  N         56.4390   25.3910  -14.8900 N.am  275  ALA275     -0.1965
     96  CA        55.5010   24.4000  -14.3820 C.3   275  ALA275      0.1728
     97  C         54.9070   23.6280  -15.5490 C.2   275  ALA275      0.2616
     98  O         54.2420   24.2190  -16.3930 O.2   275  ALA275     -0.2715
     99  CB        54.3820   25.0800  -13.6060 C.3   275  ALA275      0.0334
    100  N         55.1480   22.3180  -15.6040 N.am  276  ARG276     -0.1977
    101  CA        54.5220   21.4760  -16.6190 C.3   276  ARG276      0.1597
    102  C         53.0480   21.2660  -16.3090 C.2   276  ARG276      0.2287
    103  O         52.6490   21.2080  -15.1540 O.2   276  ARG276     -0.2864
    104  CB        55.2160   20.1160  -16.7320 C.3   276  ARG276      0.0334
    105  CG        56.6180   20.2070  -17.2940 C.3   276  ARG276      0.0492
    106  CD        57.2890   18.8600  -17.3340 C.3   276  ARG276      0.2205
    107  NE        57.7500   18.4680  -16.0130 N.pl3 276  ARG276     -0.0865
    108  CZ        58.7490   17.6220  -15.7780 C.cat 276  ARG276      0.5346
    109  NH1       59.4020   17.0390  -16.7730 N.pl3 276  ARG276      0.1354
    110  NH2       59.1000   17.3610  -14.5210 N.pl3 276  ARG276      0.1354
    111  N         51.4110   18.6840  -16.3170 N.3   278  ASN278     -0.1240
    112  CA        51.4030   17.2200  -16.1830 C.3   278  ASN278      0.1653
    113  C         50.2950   16.7620  -15.2230 C.2   278  ASN278      0.2266
    114  O         49.2820   17.4580  -15.0750 O.2   278  ASN278     -0.2867
    115  CB        52.8160   16.6920  -15.8090 C.3   278  ASN278      0.1155
    116  CG        53.3320   17.2240  -14.4800 C.2   278  ASN278      0.2627
    117  OD1       52.5850   17.7930  -13.6900 O.2   278  ASN278     -0.2716
    118  ND2       54.6400   17.0400  -14.2360 N.am  278  ASN278     -0.0877
    119  N         50.1810   16.5690  -11.9820 N.3   280  LEU280     -0.1245
    120  CA        50.0210   17.4980  -10.8570 C.3   280  LEU280      0.1561
    121  C         49.0070   18.5990  -11.1630 C.2   280  LEU280      0.2260
    122  O         48.4810   19.2060  -10.2390 O.2   280  LEU280     -0.2867
    123  CB        51.3500   18.1670  -10.4740 C.3   280  LEU280      0.0270
    124  CG        52.5180   17.3110   -9.9660 C.3   280  LEU280      0.0019
    125  CD1       53.7470   18.2050   -9.7890 C.3   280  LEU280      0.0001
    126  CD2       52.1670   16.6240   -8.6610 C.3   280  LEU280      0.0001
    127  N         58.8860   28.3860  -20.5320 N.3   300  ASP300     -0.1225
    128  CA        59.6900   27.1840  -20.3240 C.3   300  ASP300      0.1805
    129  C         60.8900   27.1720  -21.2520 C.2   300  ASP300      0.2598
    130  O         60.7990   27.6070  -22.3880 O.2   300  ASP300     -0.2718
    131  CB        58.8400   25.9370  -20.5650 C.3   300  ASP300      0.1424
    132  CG        59.3390   24.7370  -19.7890 C.2   300  ASP300      0.3668
    133  OD1       60.4950   24.3010  -20.0320 O.co2 300  ASP300     -0.2456
    134  OD2       58.5790   24.2410  -18.9230 O.co2 300  ASP300     -0.2456
    135  N         62.0140   26.6610  -20.7680 N.am  301  ILE301     -0.1966
    136  CA        63.2360   26.5820  -21.5760 C.3   301  ILE301      0.1727
    137  C         63.1290   25.4770  -22.6340 C.2   301  ILE301      0.2616
    138  O         63.7750   25.5400  -23.6750 O.2   301  ILE301     -0.2715
    139  CB        64.4890   26.3600  -20.6870 C.3   301  ILE301      0.0290
    140  CG1       65.7610   26.7960  -21.4240 C.3   301  ILE301      0.0022
    141  CG2       64.5880   24.8820  -20.2190 C.3   301  ILE301      0.0023
    142  CD1       66.6670   27.6560  -20.6010 C.3   301  ILE301      0.0001
    143  N         62.2960   24.4780  -22.3590 N.am  302  GLN302     -0.1977
    144  CA        62.1160   23.3490  -23.2560 C.3   302  GLN302      0.1601
    145  C         61.0530   23.6860  -24.2830 C.2   302  GLN302      0.2287
    146  O         59.8540   23.7940  -23.9580 O.2   302  GLN302     -0.2864
    147  CB        61.7050   22.1100  -22.4630 C.3   302  GLN302      0.0394
    148  CG        61.7460   20.8210  -23.2490 C.3   302  GLN302      0.0908
    149  CD        63.1480   20.4300  -23.6860 C.2   302  GLN302      0.2608
    150  OE1       64.1370   21.0710  -23.3260 O.2   302  GLN302     -0.2717
    151  NE2       63.2330   19.3810  -24.4950 N.am  302  GLN302     -0.0878
    152  N         62.3000   30.0550  -23.4120 N.3   318  GLY318     -0.1210
    153  CA        63.5220   30.6890  -22.9290 C.3   318  GLY318      0.1956
    154  C         63.7530   30.3730  -21.4620 C.2   318  GLY318      0.2612
    155  O         62.9530   29.6610  -20.8500 O.2   318  GLY318     -0.2717
    156  N         64.8510   30.8870  -20.9010 N.am  319  ASP319     -0.1959
    157  CA        65.1070   30.7640  -19.4670 C.3   319  ASP319      0.1840
    158  C         64.2340   31.7870  -18.7340 C.2   319  ASP319      0.2621
    159  O         64.0620   32.9110  -19.2150 O.2   319  ASP319     -0.2715
    160  CB        66.6000   30.9240  -19.1330 C.3   319  ASP319      0.1450
    161  CG        67.0520   32.3790  -19.0810 C.2   319  ASP319      0.3671
    162  OD1       67.4550   32.9110  -20.1240 O.co2 319  ASP319     -0.2456
    163  OD2       67.0300   32.9840  -17.9930 O.co2 319  ASP319     -0.2456
    164  N         63.6950   31.3860  -17.5790 N.am  320  ILE320     -0.1977
    165  CA        62.6550   32.1480  -16.8690 C.3   320  ILE320      0.1596
    166  C         63.1010   33.5620  -16.4680 C.2   320  ILE320      0.2287
    167  O         62.2990   34.4920  -16.5220 O.2   320  ILE320     -0.2864
    168  CB        62.1130   31.3650  -15.6300 C.3   320  ILE320      0.0276
    169  CG1       61.1090   30.2910  -16.0710 C.3   320  ILE320      0.0022
    170  CG2       61.4080   32.2870  -14.6490 C.3   320  ILE320      0.0022
    171  CD1       61.1260   29.0370  -15.2250 C.3   320  ILE320      0.0001
    172  N         57.8570   15.1470   -8.8470 N.3   418  THR418     -0.1218
    173  CA        57.0950   14.7420  -10.0310 C.3   418  THR418      0.1862
    174  C         56.6410   13.2770   -9.9960 C.2   418  THR418      0.2287
    175  O         55.5110   12.9800  -10.3690 O.2   418  THR418     -0.2866
    176  CB        57.9000   15.0510  -11.3140 C.3   418  THR418      0.1770
    177  OG1       58.1050   16.4700  -11.4050 O.3   418  THR418     -0.2211
    178  CG2       57.1770   14.5710  -12.5620 C.3   418  THR418      0.0375
@<TRIPOS>BOND
     1   151   149   am
     2   145   146    2
     3   145   144    1
     4   149   150    2
     5   149   148    1
     6   138   137    2
     7   152   153    1
     8   144   147    1
     9   144   143    1
    10   148   147    1
    11   153   154    1
    12   137   143   am
    13   137   136    1
    14   130   129    2
    15    16    15    1
    16    16    17    1
    17   136   135    1
    18   136   139    1
    19   154   156   am
    20   154   155    2
    21   140   139    1
    22   140   142    1
    23   129   135   am
    24   129   128    1
    25   156   157    1
    26   139   141    1
    27    19    17   am
    28    19    20    1
    29   131   128    1
    30   131   132    1
    31   127   128    1
    32    17    18    2
    33    28    27    1
    34   162   161   ar
    35   133   132   ar
    36    23    20    1
    37    23    24    1
    38    29    27    1
    39    27    26    2
    40   132   134   ar
    41   157   160    1
    42   157   158    1
    43    20    21    1
    44    26    25    1
    45    25    24    1
    46    22    21    2
    47   159   158    2
    48   160   161    1
    49   161   163   ar
    50   158   164   am
    51    21    30   am
    52   164   165    1
    53    30    31    1
    54    30    36    1
    55   106   105    1
    56   106   107    1
    57   105   104    1
    58   165   166    1
    59   165   168    1
    60   109   108    1
    61   104   101    1
    62    31    32    1
    63    31    34    1
    64   101   102    1
    65   101   100    1
    66    36    35    1
    67   167   166    2
    68    98    97    2
    69    33    32    2
    70   111   112    1
    71   102   103    2
    72   112   115    1
    73   112   113    1
    74   169   168    1
    75   169   171    1
    76   107   108    2
    77   115   116    1
    78   108   110    1
    79    35    34    1
    80    14    13    1
    81   168   170    1
    82   100    97   am
    83    97    96    1
    84    91    92    1
    85   113   114    2
    86    92    93    1
    87    95    96    1
    88    95    93   am
    89    13    10    1
    90   116   118   am
    91   116   117    2
    92    96    99    1
    93    93    94    2
    94    10     9    1
    95    10    11    1
    96     9     3   am
    97    11    12    2
    98    63    61   ar
    99    63    64   ar
   100    65    64    1
   101     1     2    1
   102    70    67    1
   103   178   176    1
   104     3     4    2
   105     3     2    1
   106    53    52    2
   107    51    52    1
   108    51    50    1
   109    61    59   ar
   110    64    62   ar
   111     2     5    1
   112   119   120    1
   113    67    68    1
   114    67    66    1
   115    69    68    2
   116    50    43   am
   117   177   176    1
   118   176   173    1
   119   121   120    1
   120   121   122    2
   121    59    58    1
   122    59    60   ar
   123    66    56   am
   124    62    60   ar
   125   120   123    1
   126    37    38    1
   127    58    55    1
   128     5     6    1
   129   123   124    1
   130    38    39    1
   131   175   174    2
   132    56    57    2
   133    56    55    1
   134    43    44    2
   135    43    42    1
   136   173   174    1
   137   173   172    1
   138    39    40    2
   139    39    41   am
   140    49    48    1
   141   124   125    1
   142   124   126    1
   143    41    42    1
   144     6     8   am
   145     6     7    2
   146    48    47    1
   147    55    54    1
   148    46    47    1
   149    46    45    1
   150    78    77    1
   151    77    76    1
   152    76    75    1
   153    42    45    1
   154    75    72    1
   155    71    72    1
   156    72    73    1
   157    73    79   am
   158    73    74    2
   159    79    80    1
   160    87    84    1
   161    87    88    1
   162    89    90    1
   163    89    88    1
   164    85    86    2
   165    85    84    1
   166    83    84    1
   167    83    81   am
   168    80    81    1
   169    81    82    2
