@<TRIPOS>MOLECULE
tmp/2jibB01.pdb
 141 138 0 0 0
SMALL
GASTEIGER

@<TRIPOS>ATOM
      1  N         46.7600   15.3290   12.0190 N.3   371  TYR371     -0.1241
      2  CA        47.7000   16.0320   11.1420 C.3   371  TYR371      0.1605
      3  C         47.6400   17.5530   11.2700 C.2   371  TYR371      0.2264
      4  O         48.6340   18.2190   11.0130 O.2   371  TYR371     -0.2867
      5  CB        47.5070   15.6110    9.6770 C.3   371  TYR371      0.0534
      6  CG        47.9900   14.2070    9.3920 C.ar  371  TYR371     -0.0201
      7  CD1       49.3220   13.9620    9.0830 C.ar  371  TYR371     -0.0009
      8  CD2       47.1170   13.1230    9.4500 C.ar  371  TYR371     -0.0009
      9  CE1       49.7760   12.6740    8.8310 C.ar  371  TYR371      0.0417
     10  CE2       47.5570   11.8360    9.2030 C.ar  371  TYR371      0.0417
     11  CZ        48.8890   11.6170    8.8920 C.ar  371  TYR371      0.1957
     12  OH        49.3320   10.3410    8.6490 O.3   371  TYR371     -0.2866
     13  N         55.5420   11.4200    1.9600 N.3   394  GLY394     -0.1210
     14  CA        54.4580   10.6010    2.5110 C.3   394  GLY394      0.1956
     15  C         53.2030   10.7990    1.6900 C.2   394  GLY394      0.2612
     16  O         53.2630   11.3930    0.6190 O.2   394  GLY394     -0.2717
     17  N         52.0720   10.2920    2.1770 N.am  395  ALA395     -0.1965
     18  CA        50.7620   10.5630    1.5740 C.3   395  ALA395      0.1728
     19  C         50.1060   11.7130    2.3420 C.2   395  ALA395      0.2616
     20  O         50.2000   12.8700    1.9310 O.2   395  ALA395     -0.2715
     21  CB        49.8680    9.3040    1.5960 C.3   395  ALA395      0.0334
     22  N         49.4760   11.3910    3.4710 N.am  396  ASN396     -0.1958
     23  CA        48.8950   12.3990    4.3600 C.3   396  ASN396      0.1819
     24  C         49.9760   13.3140    4.9760 C.2   396  ASN396      0.2621
     25  O         49.7480   14.5050    5.1840 O.2   396  ASN396     -0.2715
     26  CB        48.0880   11.7340    5.4770 C.3   396  ASN396      0.1195
     27  CG        46.8670   10.9520    4.9660 C.2   396  ASN396      0.2630
     28  OD1       45.7310   11.4370    5.0300 O.2   396  ASN396     -0.2716
     29  ND2       47.0950    9.7280    4.5020 N.am  396  ASN396     -0.0877
     30  N         51.1470   12.7470    5.2690 N.am  397  ALA397     -0.1977
     31  CA        52.2690   13.5120    5.8270 C.3   397  ALA397      0.1597
     32  C         52.7740   14.5770    4.8670 C.2   397  ALA397      0.2287
     33  O         53.2840   15.6130    5.2980 O.2   397  ALA397     -0.2864
     34  CB        53.4120   12.5770    6.2100 C.3   397  ALA397      0.0319
     35  N         57.4930   12.3770   -9.5130 N.3   419  TRP419     -0.1227
     36  CA        57.1370   10.9520   -9.4060 C.3   419  TRP419      0.1737
     37  C         56.4600   10.5420   -8.0800 C.2   419  TRP419      0.2596
     38  O         56.0670    9.3750   -7.9100 O.2   419  TRP419     -0.2718
     39  CB        58.3720   10.0630   -9.6530 C.3   419  TRP419      0.0564
     40  CG        58.5960    9.6810  -11.1030 C.ar  419  TRP419      0.0003
     41  CD1       57.7260    9.8450  -12.1550 C.ar  419  TRP419      0.0946
     42  CD2       59.7550    9.0330  -11.6470 C.ar  419  TRP419      0.0152
     43  NE1       58.2760    9.3580  -13.3060 N.ar  419  TRP419     -0.2442
     44  CE2       59.5180    8.8470  -13.0280 C.ar  419  TRP419      0.0810
     45  CE3       60.9670    8.5900  -11.1010 C.ar  419  TRP419      0.0012
     46  CZ2       60.4580    8.2510  -13.8750 C.ar  419  TRP419      0.0191
     47  CZ3       61.8900    7.9880  -11.9360 C.ar  419  TRP419      0.0001
     48  CH2       61.6310    7.8260  -13.3140 C.ar  419  TRP419      0.0015
     49  N         56.2970   11.4850   -7.1510 N.am  420  GLY420     -0.1942
     50  CA        55.7530   11.1540   -5.8290 C.3   420  GLY420      0.2014
     51  C         56.5780   10.0580   -5.1650 C.2   420  GLY420      0.2639
     52  O         56.0290    9.0680   -4.6750 O.2   420  GLY420     -0.2714
     53  N         57.9030   10.2440   -5.1530 N.am  421  VAL421     -0.1963
     54  CA        58.8320    9.2300   -4.6490 C.3   421  VAL421      0.1727
     55  C         58.8780    9.1890   -3.1150 C.2   421  VAL421      0.2616
     56  O         59.1300   10.2080   -2.4540 O.2   421  VAL421     -0.2715
     57  CB        60.2830    9.4630   -5.1660 C.3   421  VAL421      0.0290
     58  CG1       61.2330    8.4500   -4.5580 C.3   421  VAL421      0.0023
     59  CG2       60.3470    9.3770   -6.6730 C.3   421  VAL421      0.0023
     60  N         58.6180    8.0010   -2.5660 N.am  422  MET422     -0.1977
     61  CA        58.9700    7.6660   -1.1910 C.3   422  MET422      0.1605
     62  C         60.4130    7.1610   -1.2230 C.2   422  MET422      0.2287
     63  O         60.7020    6.1780   -1.8960 O.2   422  MET422     -0.2864
     64  CB        58.0630    6.5590   -0.6510 C.3   422  MET422      0.0413
     65  CG        56.5780    6.8350   -0.7290 C.3   422  MET422      0.0598
     66  SD        56.0850    8.3530    0.0790 S.3   422  MET422     -0.1393
     67  CE        56.1880    9.5370   -1.2580 C.3   422  MET422      0.0692
     68  N         56.3930   10.8400    6.6180 N.3   445  GLY445     -0.1210
     69  CA        55.4750    9.7250    6.8250 C.3   445  GLY445      0.1956
     70  C         56.3270    8.5680    7.3280 C.2   445  GLY445      0.2612
     71  O         57.5320    8.4990    7.0390 O.2   445  GLY445     -0.2717
     72  N         55.7360    7.6750    8.1170 N.am  446  ASP446     -0.1959
     73  CA        56.5160    6.5690    8.6780 C.3   446  ASP446      0.1840
     74  C         56.8470    5.5290    7.6130 C.2   446  ASP446      0.2623
     75  O         57.9650    5.0240    7.5880 O.2   446  ASP446     -0.2715
     76  CB        55.8650    5.9460    9.9260 C.3   446  ASP446      0.1450
     77  CG        54.4200    5.5230    9.7090 C.2   446  ASP446      0.3671
     78  OD1       53.7040    6.1950    8.9250 O.co2 446  ASP446     -0.2456
     79  OD2       54.0020    4.5310   10.3500 O.co2 446  ASP446     -0.2456
     80  N         55.9000    5.2210    6.7240 N.am  447  SER447     -0.1936
     81  CA        56.2050    4.3900    5.5510 C.3   447  SER447      0.2055
     82  C         57.2710    5.0570    4.6770 C.2   447  SER447      0.2642
     83  O         58.2890    4.4440    4.3370 O.2   447  SER447     -0.2714
     84  CB        54.9570    4.1380    4.7130 C.3   447  SER447      0.2130
     85  OG        55.2770    3.3860    3.5540 O.3   447  SER447     -0.2179
     86  N         57.0200    6.3140    4.3190 N.am  448  ALA448     -0.1977
     87  CA        57.9680    7.1120    3.5550 C.3   448  ALA448      0.1597
     88  C         59.3810    6.9290    4.0970 C.2   448  ALA448      0.2287
     89  O         60.2970    6.5510    3.3560 O.2   448  ALA448     -0.2864
     90  CB        57.5700    8.5840    3.5950 C.3   448  ALA448      0.0319
     91  N         61.7850    3.8210    3.4730 N.3   451  PHE451     -0.1241
     92  CA        62.4930    3.7170    2.1970 C.3   451  PHE451      0.1605
     93  C         63.9340    4.2450    2.2900 C.2   451  PHE451      0.2264
     94  O         64.7890    3.8050    1.5310 O.2   451  PHE451     -0.2867
     95  CB        61.7240    4.4410    1.0770 C.3   451  PHE451      0.0534
     96  CG        60.4260    3.7560    0.6750 C.ar  451  PHE451     -0.0203
     97  CD1       59.2410    4.0270    1.3400 C.ar  451  PHE451     -0.0042
     98  CD2       60.3970    2.8540   -0.3790 C.ar  451  PHE451     -0.0042
     99  CE1       58.0570    3.4080    0.9720 C.ar  451  PHE451     -0.0003
    100  CE2       59.2170    2.2310   -0.7420 C.ar  451  PHE451     -0.0003
    101  CZ        58.0420    2.5130   -0.0690 C.ar  451  PHE451     -0.0000
    102  N         55.9600   11.0970   11.3860 N.3   471  MET471     -0.1245
    103  CA        54.5230   11.1050   11.5960 C.3   471  MET471      0.1570
    104  C         54.0390    9.6660   11.8090 C.2   471  MET471      0.2261
    105  O         53.4860    9.0390   10.9100 O.2   471  MET471     -0.2867
    106  CB        53.8280   11.7530   10.4010 C.3   471  MET471      0.0387
    107  CG        54.2440   13.2080   10.1800 C.3   471  MET471      0.0595
    108  SD        53.5250   14.2810   11.4250 S.3   471  MET471     -0.1393
    109  CE        54.7540   15.5690   11.5330 C.3   471  MET471      0.0692
    110  N         51.8570    7.0890   12.5700 N.3   473  ASN473     -0.1240
    111  CA        50.4730    6.6050   12.7160 C.3   473  ASN473      0.1653
    112  C         50.3430    5.0960   12.5250 C.2   473  ASN473      0.2266
    113  O         49.2390    4.5620   12.5390 O.2   473  ASN473     -0.2867
    114  CB        49.4970    7.3630   11.8000 C.3   473  ASN473      0.1155
    115  CG        49.7050    7.0790   10.3200 C.2   473  ASN473      0.2627
    116  OD1       50.8040    6.7220    9.8740 O.2   473  ASN473     -0.2716
    117  ND2       48.6480    7.2710    9.5390 N.am  473  ASN473     -0.0877
    118  N         51.3450    2.9360    9.9240 N.3   475  GLY475     -0.1210
    119  CA        51.0670    2.3230    8.6340 C.3   475  GLY475      0.1956
    120  C         51.0260    3.2720    7.4540 C.2   475  GLY475      0.2612
    121  O         51.3380    4.4700    7.5650 O.2   475  GLY475     -0.2717
    122  N         50.6600    2.6970    6.3130 N.am  476  ILE476     -0.1965
    123  CA        50.5150    3.4100    5.0570 C.3   476  ILE476      0.1727
    124  C         49.1060    3.9990    5.0380 C.2   476  ILE476      0.2616
    125  O         48.1140    3.2560    5.0270 O.2   476  ILE476     -0.2715
    126  CB        50.7440    2.4410    3.8560 C.3   476  ILE476      0.0290
    127  CG1       52.1380    1.7990    3.9500 C.3   476  ILE476      0.0022
    128  CG2       50.5770    3.1670    2.5250 C.3   476  ILE476      0.0023
    129  CD1       52.4550    0.8070    2.8480 C.3   476  ILE476      0.0001
    130  N         49.0340    5.3340    5.0680 N.am  477  TYR477     -0.1974
    131  CA        47.7790    6.1150    5.1930 C.3   477  TYR477      0.1639
    132  C         47.1700    6.0510    6.5980 C.2   477  TYR477      0.2290
    133  O         46.9700    7.0880    7.2390 O.2   477  TYR477     -0.2864
    134  CB        46.7140    5.6940    4.1740 C.3   477  TYR477      0.0560
    135  CG        47.2140    5.3890    2.7800 C.ar  477  TYR477     -0.0198
    136  CD1       46.7400    4.2740    2.0910 C.ar  477  TYR477     -0.0009
    137  CD2       48.1420    6.2150    2.1420 C.ar  477  TYR477     -0.0009
    138  CE1       47.1730    3.9800    0.8140 C.ar  477  TYR477      0.0417
    139  CE2       48.5840    5.9290    0.8580 C.ar  477  TYR477      0.0417
    140  CZ        48.0940    4.8060    0.2010 C.ar  477  TYR477      0.1957
    141  OH        48.5130    4.5060   -1.0750 O.3   477  TYR477     -0.2866
@<TRIPOS>BOND
     1    46    48   ar
     2    46    44   ar
     3    48    47   ar
     4    43    44   ar
     5    43    41   ar
     6    44    42   ar
     7    41    40   ar
     8    47    45   ar
     9    42    40   ar
    10    42    45   ar
    11    40    39    1
    12    39    36    1
    13    35    36    1
    14    36    37    1
    15    37    38    2
    16    37    49   am
    17    49    50    1
    18    59    57    1
    19    50    51    1
    20    57    54    1
    21    57    58    1
    22    51    53   am
    23    51    52    2
    24    53    54    1
    25    54    55    1
    26    55    60   am
    27    55    56    2
    28    60    61    1
    29    63    62    2
    30    67    66    1
    31    62    61    1
    32    61    64    1
    33   141   140    1
    34   100    98   ar
    35   100   101   ar
    36    65    64    1
    37    65    66    1
    38    98    96   ar
    39   101    99   ar
    40   140   138   ar
    41   140   139   ar
    42    16    15    2
    43    96    95    1
    44    96    97   ar
    45   138   136   ar
    46   139   137   ar
    47    99    97   ar
    48    95    92    1
    49    94    93    2
    50    18    21    1
    51    18    17    1
    52    18    19    1
    53    15    17   am
    54    15    14    1
    55    20    19    2
    56    13    14    1
    57   136   135   ar
    58   137   135   ar
    59    92    93    1
    60    92    91    1
    61    19    22   am
    62   128   126    1
    63   135   134    1
    64   129   127    1
    65    89    88    2
    66    22    23    1
    67    85    84    1
    68    87    90    1
    69    87    88    1
    70    87    86    1
    71   126   127    1
    72   126   123    1
    73   134   131    1
    74    86    82   am
    75    83    82    2
    76    23    24    1
    77    23    26    1
    78    29    27   am
    79    82    81    1
    80    84    81    1
    81    32    33    2
    82    32    31    1
    83    27    28    2
    84    27    26    1
    85    24    25    2
    86    24    30   am
    87   125   124    2
    88   124   123    1
    89   124   130   am
    90   123   122    1
    91   130   131    1
    92   131   132    1
    93    30    31    1
    94    81    80    1
    95    31    34    1
    96   122   120   am
    97   132   133    2
    98    68    69    1
    99    80    74   am
   100    69    70    1
   101    71    70    2
   102    70    72   am
   103   120   121    2
   104   120   119    1
   105    75    74    2
   106    74    73    1
   107    72    73    1
   108   119   118    1
   109    12    11    1
   110    73    76    1
   111     9    11   ar
   112     9     7   ar
   113    11    10   ar
   114    78    77   ar
   115     7     6   ar
   116    10     8   ar
   117     6     8   ar
   118     6     5    1
   119   117   115   am
   120     5     2    1
   121    77    76    1
   122    77    79   ar
   123   116   115    2
   124   107   106    1
   125   107   108    1
   126   115   114    1
   127   106   103    1
   128   105   104    2
   129     4     3    2
   130     2     3    1
   131     2     1    1
   132   102   103    1
   133   108   109    1
   134   103   104    1
   135   114   111    1
   136   112   113    2
   137   112   111    1
   138   110   111    1
