@<TRIPOS>MOLECULE
tmp/2jidB04.pdb
 178 174 0 0 0
SMALL
GASTEIGER

@<TRIPOS>ATOM
      1  N         56.2680   68.9530   72.4720 N.3    87  ARG87      -0.1231
      2  CA        57.2170   68.4690   73.5000 C.3    87  ARG87       0.1694
      3  C         56.7480   68.6570   74.9320 C.2    87  ARG87       0.2592
      4  O         57.0830   67.8400   75.7980 O.2    87  ARG87      -0.2718
      5  CB        58.5900   69.1060   73.3700 C.3    87  ARG87       0.0321
      6  CG        59.6490   68.4180   74.2550 C.3    87  ARG87       0.0489
      7  CD        60.8780   69.2900   74.4440 C.3    87  ARG87       0.2205
      8  NE        61.4960   69.5870   73.1590 N.pl3  87  ARG87      -0.0865
      9  CZ        62.3330   68.7690   72.5480 C.cat  87  ARG87       0.5346
     10  NH1       62.6730   67.6170   73.1120 N.pl3  87  ARG87       0.1354
     11  NH2       62.8220   69.1030   71.3650 N.pl3  87  ARG87       0.1354
     12  N         56.0200   69.7460   75.1880 N.am   88  HIS88      -0.1976
     13  CA        55.4160   69.9750   76.5010 C.3    88  HIS88       0.1656
     14  C         53.8930   70.0140   76.4360 C.2    88  HIS88       0.2291
     15  O         53.2140   69.8040   77.4410 O.2    88  HIS88      -0.2864
     16  CB        55.9400   71.2670   77.1340 C.3    88  HIS88       0.0771
     17  CG        57.4300   71.3160   77.2530 C.ar   88  HIS88       0.0820
     18  ND1       58.2190   72.1000   76.4380 N.ar   88  HIS88      -0.2267
     19  CD2       58.2810   70.6660   78.0810 C.ar   88  HIS88       0.1154
     20  CE1       59.4900   71.9360   76.7580 C.ar   88  HIS88       0.1986
     21  NE2       59.5540   71.0720   77.7530 N.ar   88  HIS88      -0.2212
     22  N         58.5370   75.5140   72.0890 N.3   167  GLU167     -0.1231
     23  CA        59.8110   74.8650   71.8140 C.3   167  GLU167      0.1699
     24  C         61.0510   75.7240   72.2260 C.2   167  GLU167      0.2592
     25  O         61.9870   75.2280   72.8660 O.2   167  GLU167     -0.2718
     26  CB        59.8630   74.4290   70.3360 C.3   167  GLU167      0.0402
     27  CG        61.0750   73.6570   69.9610 C.3   167  GLU167      0.1161
     28  CD        61.1920   72.3000   70.6460 C.2   167  GLU167      0.3649
     29  OE1       60.1840   71.7660   71.1600 O.co2 167  GLU167     -0.2457
     30  OE2       62.3030   71.7340   70.6320 O.co2 167  GLU167     -0.2457
     31  N         61.0410   77.0040   71.8800 N.am  168  GLU168     -0.1979
     32  CA        62.2360   77.8080   72.0150 C.3   168  GLU168      0.1602
     33  C         62.2360   78.8710   73.1060 C.2   168  GLU168      0.2287
     34  O         63.2810   79.3950   73.4500 O.2   168  GLU168     -0.2864
     35  CB        62.5980   78.4470   70.6770 C.3   168  GLU168      0.0415
     36  CG        62.6890   77.4970   69.4650 C.3   168  GLU168      0.1163
     37  CD        63.7150   76.3820   69.5980 C.2   168  GLU168      0.3649
     38  OE1       64.4750   76.3420   70.5950 O.co2 168  GLU168     -0.2457
     39  OE2       63.7480   75.5240   68.6910 O.co2 168  GLU168     -0.2457
     40  N         59.9090   76.6890   77.0770 N.3   171  SER171     -0.1217
     41  CA        59.9960   75.2360   77.2730 C.3   171  SER171      0.1889
     42  C         58.7750   74.7680   78.0470 C.2   171  SER171      0.2288
     43  O         58.8870   74.0310   79.0280 O.2   171  SER171     -0.2866
     44  CB        61.2790   74.8150   78.0120 C.3   171  SER171      0.2089
     45  OG        62.4400   75.4830   77.5310 O.3   171  SER171     -0.2183
     46  N         70.6320   80.1810   76.3330 N.3   319  PHE319     -0.1227
     47  CA        69.7240   79.9770   75.2280 C.3   319  PHE319      0.1736
     48  C         68.7650   81.1520   75.1100 C.2   319  PHE319      0.2595
     49  O         68.4300   81.5560   74.0100 O.2   319  PHE319     -0.2718
     50  CB        68.9690   78.6720   75.3790 C.3   319  PHE319      0.0547
     51  CG        69.7870   77.4470   75.1170 C.ar  319  PHE319     -0.0202
     52  CD1       69.6690   76.7670   73.9050 C.ar  319  PHE319     -0.0042
     53  CD2       70.6000   76.9140   76.1040 C.ar  319  PHE319     -0.0042
     54  CE1       70.3820   75.5530   73.6700 C.ar  319  PHE319     -0.0003
     55  CE2       71.3220   75.7390   75.8940 C.ar  319  PHE319     -0.0003
     56  CZ        71.2220   75.0490   74.6730 C.ar  319  PHE319     -0.0000
     57  N         68.3230   81.6820   76.2460 N.am  320  ARG320     -0.1980
     58  CA        67.5580   82.9100   76.2880 C.3   320  ARG320      0.1597
     59  C         68.2580   83.7870   77.3380 C.2   320  ARG320      0.2287
     60  O         69.2510   83.3420   77.9110 O.2   320  ARG320     -0.2864
     61  CB        66.1020   82.5960   76.6390 C.3   320  ARG320      0.0334
     62  CG        65.8970   81.9270   77.9840 C.3   320  ARG320      0.0492
     63  CD        64.8680   80.8330   77.8830 C.3   320  ARG320      0.2205
     64  NE        65.3150   79.7680   76.9640 N.pl3 320  ARG320     -0.0865
     65  CZ        64.9310   78.4910   77.0100 C.cat 320  ARG320      0.5346
     66  NH1       64.0690   78.0500   77.9250 N.pl3 320  ARG320      0.1354
     67  NH2       65.4060   77.6440   76.1160 N.pl3 320  ARG320      0.1354
     68  N         76.8160   65.8750   69.1550 N.3   509  TYR509     -0.1241
     69  CA        75.7030   66.8060   69.1560 C.3   509  TYR509      0.1605
     70  C         76.2230   68.1650   68.7020 C.2   509  TYR509      0.2264
     71  O         75.8670   68.6490   67.6330 O.2   509  TYR509     -0.2867
     72  CB        75.0320   66.9190   70.5230 C.3   509  TYR509      0.0534
     73  CG        73.7380   67.6980   70.4210 C.ar  509  TYR509     -0.0201
     74  CD1       72.5530   67.0510   70.0550 C.ar  509  TYR509     -0.0009
     75  CD2       73.7000   69.0990   70.6230 C.ar  509  TYR509     -0.0009
     76  CE1       71.3380   67.7620   69.9340 C.ar  509  TYR509      0.0417
     77  CE2       72.4980   69.8260   70.5020 C.ar  509  TYR509      0.0417
     78  CZ        71.3160   69.1480   70.1580 C.ar  509  TYR509      0.1957
     79  OH        70.1110   69.8070   70.0170 O.3   509  TYR509     -0.2866
     80  N         69.2610   65.4620   65.4890 N.3   592  SER592     -0.1202
     81  CA        69.0120   66.9190   65.4540 C.3   592  SER592      0.2020
     82  C         70.2940   67.5990   65.0110 C.2   592  SER592      0.2618
     83  O         70.9030   67.1200   64.0580 O.2   592  SER592     -0.2717
     84  CB        68.5250   67.4830   66.7940 C.3   592  SER592      0.2103
     85  OG        67.9650   66.4910   67.6270 O.3   592  SER592     -0.2182
     86  N         70.7110   68.6900   65.6710 N.am  593  TYR593     -0.1975
     87  CA        72.0450   69.2700   65.4120 C.3   593  TYR593      0.1639
     88  C         73.1360   68.2050   65.2410 C.2   593  TYR593      0.2290
     89  O         74.0670   68.4110   64.4840 O.2   593  TYR593     -0.2864
     90  CB        72.4930   70.2320   66.5130 C.3   593  TYR593      0.0560
     91  CG        73.3680   71.3620   66.0180 C.ar  593  TYR593     -0.0198
     92  CD1       74.7260   71.1820   65.7830 C.ar  593  TYR593     -0.0009
     93  CD2       72.8330   72.6170   65.7930 C.ar  593  TYR593     -0.0009
     94  CE1       75.5250   72.2270   65.3330 C.ar  593  TYR593      0.0417
     95  CE2       73.6170   73.6650   65.3380 C.ar  593  TYR593      0.0417
     96  CZ        74.9550   73.4560   65.1070 C.ar  593  TYR593      0.1957
     97  OH        75.7030   74.5050   64.6610 O.3   593  TYR593     -0.2866
     98  N         69.0980   68.7110   60.7290 N.3   618  VAL618     -0.1245
     99  CA        68.8820   69.9240   59.9580 C.3   618  VAL618      0.1561
    100  C         69.7410   69.7610   58.7000 C.2   618  VAL618      0.2260
    101  O         70.7230   69.0250   58.7100 O.2   618  VAL618     -0.2867
    102  CB        69.2980   71.2050   60.7360 C.3   618  VAL618      0.0252
    103  CG1       69.4340   72.4250   59.7940 C.3   618  VAL618      0.0019
    104  CG2       68.2960   71.5200   61.7960 C.3   618  VAL618      0.0019
    105  N         69.5930   75.8420   57.0580 N.3   621  TRP621     -0.1241
    106  CA        69.0810   76.5900   58.2070 C.3   621  TRP621      0.1605
    107  C         67.7940   77.3130   57.9230 C.2   621  TRP621      0.2264
    108  O         67.0150   77.5600   58.8390 O.2   621  TRP621     -0.2867
    109  CB        70.1400   77.5120   58.8380 C.3   621  TRP621      0.0550
    110  CG        71.1290   76.6940   59.6050 C.ar  621  TRP621      0.0003
    111  CD1       72.4520   76.5330   59.3270 C.ar  621  TRP621      0.0946
    112  CD2       70.8500   75.8580   60.7390 C.ar  621  TRP621      0.0152
    113  NE1       73.0200   75.6660   60.2320 N.ar  621  TRP621     -0.2442
    114  CE2       72.0550   75.2390   61.1070 C.ar  621  TRP621      0.0810
    115  CE3       69.6970   75.5900   61.4890 C.ar  621  TRP621      0.0012
    116  CZ2       72.1410   74.3650   62.1830 C.ar  621  TRP621      0.0191
    117  CZ3       69.7830   74.7310   62.5500 C.ar  621  TRP621      0.0001
    118  CH2       70.9950   74.1230   62.8890 C.ar  621  TRP621      0.0015
    119  N         64.6530   75.5130   59.4700 N.3   624  TYR624     -0.1241
    120  CA        64.3860   75.4850   60.9330 C.3   624  TYR624      0.1605
    121  C         63.8200   76.7600   61.5670 C.2   624  TYR624      0.2264
    122  O         63.9240   77.8350   61.0050 O.2   624  TYR624     -0.2867
    123  CB        65.6220   75.0430   61.7060 C.3   624  TYR624      0.0534
    124  CG        65.2790   74.4080   63.0200 C.ar  624  TYR624     -0.0201
    125  CD1       64.5480   73.2420   63.0690 C.ar  624  TYR624     -0.0009
    126  CD2       65.6830   74.9770   64.2160 C.ar  624  TYR624     -0.0009
    127  CE1       64.2280   72.6580   64.2820 C.ar  624  TYR624      0.0417
    128  CE2       65.3700   74.4020   65.4260 C.ar  624  TYR624      0.0417
    129  CZ        64.6490   73.2430   65.4510 C.ar  624  TYR624      0.1957
    130  OH        64.3320   72.6640   66.6410 O.3   624  TYR624     -0.2866
    131  N         65.2530   79.7910   67.1560 N.3   628  TYR628     -0.1241
    132  CA        66.5110   79.0830   67.3750 C.3   628  TYR628      0.1605
    133  C         67.6230   79.5560   66.4250 C.2   628  TYR628      0.2264
    134  O         68.7230   79.9350   66.8460 O.2   628  TYR628     -0.2867
    135  CB        66.2910   77.5790   67.2180 C.3   628  TYR628      0.0534
    136  CG        67.5130   76.7540   67.5530 C.ar  628  TYR628     -0.0201
    137  CD1       68.4030   76.3430   66.5560 C.ar  628  TYR628     -0.0009
    138  CD2       67.7780   76.3720   68.8790 C.ar  628  TYR628     -0.0009
    139  CE1       69.5350   75.5620   66.8740 C.ar  628  TYR628      0.0417
    140  CE2       68.8980   75.5970   69.2150 C.ar  628  TYR628      0.0417
    141  CZ        69.7720   75.2010   68.2090 C.ar  628  TYR628      0.1957
    142  OH        70.8700   74.4460   68.5370 O.3   628  TYR628     -0.2866
    143  N         68.8620   83.1890   66.4150 N.3   631  ARG631     -0.1245
    144  CA        69.6180   83.4580   67.6430 C.3   631  ARG631      0.1563
    145  C         71.1030   83.3630   67.2850 C.2   631  ARG631      0.2260
    146  O         71.8820   84.2810   67.5270 O.2   631  ARG631     -0.2867
    147  CB        69.2320   82.4400   68.7180 C.3   631  ARG631      0.0307
    148  CG        69.9880   82.5230   70.0190 C.3   631  ARG631      0.0489
    149  CD        69.1010   82.1050   71.1630 C.3   631  ARG631      0.2205
    150  NE        68.8960   80.6620   71.2580 N.pl3 631  ARG631     -0.0865
    151  CZ        67.7260   80.0510   71.4630 C.cat 631  ARG631      0.5346
    152  NH1       66.5950   80.7250   71.6110 N.pl3 631  ARG631      0.1354
    153  NH2       67.6950   78.7390   71.5440 N.pl3 631  ARG631      0.1354
    154  N         58.9590   69.2980   64.4760 N.3   672  ASN672     -0.1225
    155  CA        60.1300   70.0770   64.8510 C.3   672  ASN672      0.1785
    156  C         61.0500   70.3370   63.6590 C.2   672  ASN672      0.2597
    157  O         61.0710   71.4370   63.1030 O.2   672  ASN672     -0.2718
    158  CB        60.8930   69.3170   65.9470 C.3   672  ASN672      0.1169
    159  CG        61.7020   70.2280   66.8420 C.2   672  ASN672      0.2627
    160  OD1       62.2210   71.2590   66.3980 O.2   672  ASN672     -0.2716
    161  ND2       61.8150   69.8560   68.1210 N.am  672  ASN672     -0.0877
    162  N         61.8100   69.3030   63.2920 N.am  673  VAL673     -0.1980
    163  CA        62.7530   69.3340   62.1720 C.3   673  VAL673      0.1595
    164  C         62.0970   68.6150   61.0210 C.2   673  VAL673      0.2287
    165  O         62.0880   67.3890   60.9670 O.2   673  VAL673     -0.2864
    166  CB        64.0470   68.6000   62.5190 C.3   673  VAL673      0.0276
    167  CG1       64.9690   68.5850   61.3130 C.3   673  VAL673      0.0022
    168  CG2       64.7050   69.2650   63.6680 C.3   673  VAL673      0.0022
    169  N         60.0880   63.8490   65.9650 N.3   702  HIS702     -0.1241
    170  CA        61.5120   64.1010   66.0900 C.3   702  HIS702      0.1621
    171  C         62.2120   63.1580   67.0560 C.2   702  HIS702      0.2264
    172  O         63.3800   62.8470   66.8940 O.2   702  HIS702     -0.2867
    173  CB        61.7920   65.5390   66.4560 C.3   702  HIS702      0.0745
    174  CG        63.2430   65.8800   66.4040 C.ar  702  HIS702      0.0817
    175  ND1       63.9660   65.8660   65.2290 N.ar  702  HIS702     -0.2268
    176  CD2       64.1220   66.2060   67.3830 C.ar  702  HIS702      0.1154
    177  CE1       65.2220   66.1920   65.4860 C.ar  702  HIS702      0.1986
    178  NE2       65.3430   66.4010   66.7850 N.ar  702  HIS702     -0.2212
@<TRIPOS>BOND
     1   105   106    1
     2   107   106    1
     3   107   108    2
     4   106   109    1
     5   100   101    2
     6   100    99    1
     7   109   110    1
     8   111   110   ar
     9   111   113   ar
    10   119   120    1
    11   110   112   ar
    12   103   102    1
    13    99    98    1
    14    99   102    1
    15   113   114   ar
    16   102   104    1
    17   112   114   ar
    18   112   115   ar
    19   120   121    1
    20   120   123    1
    21   165   164    2
    22   122   121    2
    23   164   163    1
    24   114   116   ar
    25   167   166    1
    26   115   117   ar
    27   123   124    1
    28   163   166    1
    29   163   162    1
    30   116   118   ar
    31   166   168    1
    32   117   118   ar
    33   124   125   ar
    34   124   126   ar
    35   125   127   ar
    36   157   156    2
    37   162   156   am
    38   156   155    1
    39    83    82    2
    40   126   128   ar
    41   127   129   ar
    42   154   155    1
    43    89    88    2
    44    97    96    1
    45   155   158    1
    46    82    81    1
    47    82    86   am
    48    96    94   ar
    49    96    95   ar
    50   175   177   ar
    51   175   174   ar
    52    88    87    1
    53    94    92   ar
    54    95    93   ar
    55    87    86    1
    56    87    90    1
    57   128   129   ar
    58   129   130    1
    59    81    80    1
    60    81    84    1
    61   177   178   ar
    62    92    91   ar
    63    93    91   ar
    64   158   159    1
    65   169   170    1
    66    91    90    1
    67   170   173    1
    68   170   171    1
    69   160   159    2
    70   174   173    1
    71   174   176   ar
    72   143   144    1
    73   133   134    2
    74   133   132    1
    75   137   139   ar
    76   137   136   ar
    77   178   176   ar
    78    84    85    1
    79   159   161   am
    80   139   141   ar
    81   172   171    2
    82   131   132    1
    83   135   132    1
    84   135   136    1
    85   145   146    2
    86   145   144    1
    87   136   138   ar
    88    71    70    2
    89   144   147    1
    90   141   142    1
    91   141   140   ar
    92    39    37   ar
    93    70    69    1
    94   147   148    1
    95   138   140   ar
    96    68    69    1
    97    69    72    1
    98    36    37    1
    99    36    35    1
   100    37    38   ar
   101    76    74   ar
   102    76    78   ar
   103    27    26    1
   104    27    28    1
   105    79    78    1
   106   148   149    1
   107    74    73   ar
   108    78    77   ar
   109    26    23    1
   110    73    72    1
   111    73    75   ar
   112    77    75   ar
   113    30    28   ar
   114    28    29   ar
   115    35    32    1
   116   149   150    1
   117   150   151    2
   118    11     9    1
   119   151   153    1
   120   151   152    1
   121    23    22    1
   122    23    24    1
   123    31    32    1
   124    31    24   am
   125    32    33    1
   126    24    25    2
   127     1     2    1
   128     9    10    1
   129     9     8    2
   130    33    34    2
   131     8     7    1
   132     5     2    1
   133     5     6    1
   134     2     3    1
   135    54    52   ar
   136    54    56   ar
   137    52    51   ar
   138    49    48    2
   139     6     7    1
   140    56    55   ar
   141     3    12   am
   142     3     4    2
   143    48    47    1
   144    48    57   am
   145    51    50    1
   146    51    53   ar
   147    12    13    1
   148    47    50    1
   149    47    46    1
   150    55    53   ar
   151    67    65    1
   152    57    58    1
   153    58    61    1
   154    58    59    1
   155    14    13    1
   156    14    15    2
   157    18    20   ar
   158    18    17   ar
   159    13    16    1
   160    61    62    1
   161    20    21   ar
   162    64    65    2
   163    64    63    1
   164    65    66    1
   165    40    41    1
   166    16    17    1
   167    17    19   ar
   168    41    44    1
   169    41    42    1
   170    59    60    2
   171    45    44    1
   172    21    19   ar
   173    63    62    1
   174    42    43    2
