@<TRIPOS>MOLECULE
tmp/2jieA00.pdb
 152 152 0 0 0
SMALL
GASTEIGER

@<TRIPOS>ATOM
      1  N         73.2970   29.7310   47.9710 N.3    19  GLN19      -0.1245
      2  CA        73.8250   28.8120   46.9720 C.3    19  GLN19       0.1566
      3  C         75.3450   28.6440   46.9360 C.2    19  GLN19       0.2260
      4  O         75.8310   27.6400   46.4060 O.2    19  GLN19      -0.2867
      5  CB        73.3300   29.1890   45.5720 C.3    19  GLN19       0.0367
      6  CG        71.8250   29.0760   45.4030 C.3    19  GLN19       0.0905
      7  CD        71.3740   29.5270   44.0350 C.2    19  GLN19       0.2608
      8  OE1       70.9370   30.6660   43.8540 O.2    19  GLN19      -0.2717
      9  NE2       71.4890   28.6360   43.0560 N.am   19  GLN19      -0.0878
     10  N         76.9780   40.4380   40.5540 N.3    76  ARG76      -0.1245
     11  CA        75.7340   40.4890   41.3200 C.3    76  ARG76       0.1563
     12  C         75.7290   39.3810   42.3560 C.2    76  ARG76       0.2260
     13  O         75.8890   38.2070   42.0250 O.2    76  ARG76      -0.2867
     14  CB        74.5030   40.3250   40.4100 C.3    76  ARG76       0.0307
     15  CG        73.1510   40.4120   41.1620 C.3    76  ARG76       0.0489
     16  CD        71.8930   40.2300   40.2740 C.3    76  ARG76       0.2205
     17  NE        71.4800   38.8370   40.1160 N.pl3  76  ARG76      -0.0865
     18  CZ        70.2310   38.3940   40.2550 C.cat  76  ARG76       0.5346
     19  NH1       69.9650   37.1070   40.0840 N.pl3  76  ARG76       0.1354
     20  NH2       69.2440   39.2190   40.5720 N.pl3  76  ARG76       0.1354
     21  N         67.1180   36.8870   48.2910 N.3   119  HIS119     -0.1226
     22  CA        67.2310   35.7990   47.3480 C.3   119  HIS119      0.1752
     23  C         66.8370   34.4370   47.9310 C.2   119  HIS119      0.2596
     24  O         67.6040   33.4650   47.8710 O.2   119  HIS119     -0.2718
     25  CB        68.6410   35.7850   46.7610 C.3   119  HIS119      0.0759
     26  CG        68.7390   35.1030   45.4360 C.ar  119  HIS119      0.0818
     27  ND1       68.2340   33.8410   45.2120 N.ar  119  HIS119     -0.2268
     28  CD2       69.3340   35.4790   44.2800 C.ar  119  HIS119      0.1154
     29  CE1       68.5180   33.4670   43.9790 C.ar  119  HIS119      0.1986
     30  NE2       69.1870   34.4420   43.3930 N.ar  119  HIS119     -0.2212
     31  N         65.6320   34.4190   48.5140 N.am  120  TRP120     -0.1976
     32  CA        64.9660   33.2360   49.0660 C.3   120  TRP120      0.1640
     33  C         65.4180   32.6520   50.4050 C.2   120  TRP120      0.2290
     34  O         64.7710   31.7330   50.9160 O.2   120  TRP120     -0.2864
     35  CB        64.9780   32.1250   48.0060 C.3   120  TRP120      0.0576
     36  CG        64.7050   32.5860   46.5720 C.ar  120  TRP120      0.0006
     37  CD1       64.2560   33.8190   46.1600 C.ar  120  TRP120      0.0946
     38  CD2       64.8250   31.7940   45.3860 C.ar  120  TRP120      0.0152
     39  NE1       64.0850   33.8330   44.7930 N.ar  120  TRP120     -0.2442
     40  CE2       64.4240   32.6030   44.2930 C.ar  120  TRP120      0.0810
     41  CE3       65.2250   30.4740   45.1370 C.ar  120  TRP120      0.0012
     42  CZ2       64.4170   32.1370   42.9800 C.ar  120  TRP120      0.0191
     43  CZ3       65.2160   30.0130   43.8240 C.ar  120  TRP120      0.0001
     44  CH2       64.8110   30.8440   42.7650 C.ar  120  TRP120      0.0015
     45  N         64.7240   39.0080   44.1310 N.3   163  ASN163     -0.1225
     46  CA        65.0530   38.1510   43.0000 C.3   163  ASN163      0.1785
     47  C         63.9030   37.1670   42.9190 C.2   163  ASN163      0.2597
     48  O         63.6060   36.4670   43.8870 O.2   163  ASN163     -0.2718
     49  CB        66.3580   37.3550   43.1940 C.3   163  ASN163      0.1169
     50  CG        66.5140   36.2330   42.1630 C.2   163  ASN163      0.2627
     51  OD1       65.9770   35.1350   42.3360 O.2   163  ASN163     -0.2716
     52  ND2       67.2290   36.5120   41.0810 N.am  163  ASN163     -0.0877
     53  N         63.2420   37.1590   41.7660 N.am  164  GLU164     -0.1979
     54  CA        62.1340   36.2570   41.4590 C.3   164  GLU164      0.1602
     55  C         61.0470   36.0090   42.5040 C.2   164  GLU164      0.2287
     56  O         60.9720   34.9140   43.0730 O.2   164  GLU164     -0.2864
     57  CB        62.7090   34.9020   41.0470 C.3   164  GLU164      0.0415
     58  CG        63.7640   34.9770   39.9760 C.3   164  GLU164      0.1163
     59  CD        64.1830   33.6090   39.4850 C.2   164  GLU164      0.3649
     60  OE1       63.5600   32.6120   39.9000 O.co2 164  GLU164     -0.2457
     61  OE2       65.1180   33.5420   38.6610 O.co2 164  GLU164     -0.2457
     62  N         65.2350   37.1790   34.3670 N.3   293  ASN293     -0.1240
     63  CA        65.9010   35.8760   34.4670 C.3   293  ASN293      0.1653
     64  C         65.1440   34.9720   33.4800 C.2   293  ASN293      0.2266
     65  O         63.9330   34.7990   33.6060 O.2   293  ASN293     -0.2867
     66  CB        65.7790   35.3310   35.9040 C.3   293  ASN293      0.1155
     67  CG        66.7680   35.9770   36.8760 C.2   293  ASN293      0.2627
     68  OD1       67.5460   36.8570   36.4990 O.2   293  ASN293     -0.2716
     69  ND2       66.7550   35.5190   38.1330 N.am  293  ASN293     -0.0877
     70  N         65.3740   31.1970   30.9450 N.3   295  TYR295     -0.1241
     71  CA        66.0650   29.9440   30.6270 C.3   295  TYR295      0.1605
     72  C         65.4590   29.2250   29.4410 C.2   295  TYR295      0.2264
     73  O         66.1850   28.7970   28.5390 O.2   295  TYR295     -0.2867
     74  CB        66.0770   29.0070   31.8280 C.3   295  TYR295      0.0534
     75  CG        67.0670   29.4270   32.8750 C.ar  295  TYR295     -0.0201
     76  CD1       68.3360   28.8480   32.9480 C.ar  295  TYR295     -0.0009
     77  CD2       66.7470   30.4350   33.7780 C.ar  295  TYR295     -0.0009
     78  CE1       69.2520   29.2740   33.9060 C.ar  295  TYR295      0.0417
     79  CE2       67.6500   30.8610   34.7280 C.ar  295  TYR295      0.0417
     80  CZ        68.8940   30.2790   34.7900 C.ar  295  TYR295      0.1957
     81  OH        69.7740   30.6760   35.7570 O.3   295  TYR295     -0.2866
     82  N         65.5900   21.2150   30.2680 N.3   325  TRP325     -0.1241
     83  CA        65.0040   22.4590   29.7770 C.3   325  TRP325      0.1605
     84  C         65.3130   22.6560   28.2930 C.2   325  TRP325      0.2264
     85  O         66.4620   22.5730   27.8790 O.2   325  TRP325     -0.2867
     86  CB        65.5270   23.6660   30.5740 C.3   325  TRP325      0.0550
     87  CG        65.2120   23.6070   32.0370 C.ar  325  TRP325      0.0003
     88  CD1       64.4450   22.6680   32.6740 C.ar  325  TRP325      0.0946
     89  CD2       65.6460   24.5230   33.0530 C.ar  325  TRP325      0.0152
     90  NE1       64.3770   22.9410   34.0180 N.ar  325  TRP325     -0.2442
     91  CE2       65.1030   24.0730   34.2810 C.ar  325  TRP325      0.0810
     92  CE3       66.4390   25.6810   33.0440 C.ar  325  TRP325      0.0012
     93  CZ2       65.3270   24.7370   35.4930 C.ar  325  TRP325      0.0191
     94  CZ3       66.6660   26.3510   34.2500 C.ar  325  TRP325      0.0001
     95  CH2       66.1100   25.8740   35.4610 C.ar  325  TRP325      0.0015
     96  N         70.0940   37.0730   35.0260 N.3   353  GLU353     -0.1245
     97  CA        70.3400   35.6330   35.0360 C.3   353  GLU353      0.1567
     98  C         70.0320   34.8730   33.7450 C.2   353  GLU353      0.2260
     99  O         68.8820   34.8050   33.3010 O.2   353  GLU353     -0.2867
    100  CB        69.6220   34.9570   36.2060 C.3   353  GLU353      0.0388
    101  CG        69.5640   33.4480   36.0580 C.3   353  GLU353      0.1160
    102  CD        68.5810   32.7850   37.0250 C.2   353  GLU353      0.3649
    103  OE1       69.1820   32.1910   38.2500 O.co2 353  GLU353     -0.2457
    104  OE2       67.3840   32.8210   36.6280 O.co2 353  GLU353     -0.2457
    105  N         74.4620   33.4080   34.5420 N.3   399  TRP399     -0.1241
    106  CA        74.1610   32.7700   35.8040 C.3   399  TRP399      0.1605
    107  C         75.1600   31.7400   36.2520 C.2   399  TRP399      0.2264
    108  O         75.5140   30.8070   35.5230 O.2   399  TRP399     -0.2867
    109  CB        72.7780   32.1400   35.8490 C.3   399  TRP399      0.0550
    110  CG        72.6640   31.2820   37.0810 C.ar  399  TRP399      0.0003
    111  CD1       72.7460   29.9170   37.1330 C.ar  399  TRP399      0.0946
    112  CD2       72.6310   31.7300   38.4470 C.ar  399  TRP399      0.0152
    113  NE1       72.7780   29.4930   38.4390 N.ar  399  TRP399     -0.2442
    114  CE2       72.7070   30.5850   39.2640 C.ar  399  TRP399      0.0810
    115  CE3       72.5500   32.9900   39.0570 C.ar  399  TRP399      0.0012
    116  CZ2       72.7060   30.6550   40.6580 C.ar  399  TRP399      0.0191
    117  CZ3       72.5510   33.0630   40.4520 C.ar  399  TRP399      0.0001
    118  CH2       72.6280   31.8970   41.2360 C.ar  399  TRP399      0.0015
    119  N         71.9290   23.9610   43.5070 N.3   406  GLU406     -0.1231
    120  CA        70.8310   24.2400   42.5940 C.3   406  GLU406      0.1699
    121  C         69.5060   23.8350   43.2140 C.2   406  GLU406      0.2592
    122  O         68.7830   22.9650   42.7160 O.2   406  GLU406     -0.2718
    123  CB        71.0650   23.5350   41.2520 C.3   406  GLU406      0.0402
    124  CG        70.0500   23.8380   40.1410 C.3   406  GLU406      0.1161
    125  CD        69.6630   25.3180   39.9990 C.2   406  GLU406      0.3649
    126  OE1       70.4950   26.2070   40.2660 O.co2 406  GLU406     -0.2457
    127  OE2       68.5090   25.5810   39.5920 O.co2 406  GLU406     -0.2457
    128  N         69.2170   24.4900   44.3320 N.am  407  TRP407     -0.1976
    129  CA        67.9820   24.3060   45.0790 C.3   407  TRP407      0.1640
    130  C         67.4590   22.8680   45.2240 C.2   407  TRP407      0.2290
    131  O         68.1350   22.0220   45.8060 O.2   407  TRP407     -0.2864
    132  CB        66.9210   25.2280   44.4710 C.3   407  TRP407      0.0576
    133  CG        67.4100   26.6480   44.3680 C.ar  407  TRP407      0.0006
    134  CD1       67.6550   27.3760   43.2200 C.ar  407  TRP407      0.0946
    135  CD2       67.6910   27.5200   45.4590 C.ar  407  TRP407      0.0152
    136  NE1       68.0630   28.6520   43.5450 N.ar  407  TRP407     -0.2442
    137  CE2       68.0920   28.7710   44.9100 C.ar  407  TRP407      0.0810
    138  CE3       67.6370   27.3710   46.8510 C.ar  407  TRP407      0.0012
    139  CZ2       68.4360   29.8710   45.7090 C.ar  407  TRP407      0.0191
    140  CZ3       67.9740   28.4590   47.6520 C.ar  407  TRP407      0.0001
    141  CH2       68.3730   29.7060   47.0710 C.ar  407  TRP407      0.0015
    142  N         75.6480   24.9910   36.9880 N.3   415  PHE415     -0.1241
    143  CA        75.4170   26.1120   36.0720 C.3   415  PHE415      0.1605
    144  C         76.6650   26.9630   35.9270 C.2   415  PHE415      0.2264
    145  O         76.6910   27.9290   35.1580 O.2   415  PHE415     -0.2867
    146  CB        74.2880   27.0230   36.5700 C.3   415  PHE415      0.0534
    147  CG        72.9030   26.5540   36.2160 C.ar  415  PHE415     -0.0203
    148  CD1       72.1840   25.7130   37.0700 C.ar  415  PHE415     -0.0042
    149  CD2       72.2920   27.0010   35.0490 C.ar  415  PHE415     -0.0042
    150  CE1       70.8760   25.3350   36.7740 C.ar  415  PHE415     -0.0003
    151  CE2       70.9920   26.6320   34.7430 C.ar  415  PHE415     -0.0003
    152  CZ        70.2770   25.7990   35.6000 C.ar  415  PHE415     -0.0000
@<TRIPOS>BOND
     1    85    84    2
     2    84    83    1
     3    73    72    2
     4    72    71    1
     5    83    82    1
     6    83    86    1
     7    86    87    1
     8    71    70    1
     9    71    74    1
    10    74    75    1
    11    87    88   ar
    12    87    89   ar
    13    88    90   ar
    14    75    76   ar
    15    75    77   ar
    16    76    78   ar
    17    92    89   ar
    18    92    94   ar
    19    89    91   ar
    20    99    98    2
    21    64    65    2
    22    64    63    1
    23    98    97    1
    24    77    79   ar
    25    78    80   ar
    26    90    91   ar
    27    94    95   ar
    28    91    93   ar
    29    62    63    1
    30    63    66    1
    31   105   106    1
    32    79    80   ar
    33   151   149   ar
    34   151   152   ar
    35    80    81    1
    36    96    97    1
    37    97   100    1
    38   149   147   ar
    39   145   144    2
    40    95    93   ar
    41   108   107    2
    42   152   150   ar
    43   106   109    1
    44   106   107    1
    45   109   110    1
    46    66    67    1
    47   144   143    1
    48   101   100    1
    49   101   102    1
    50   143   146    1
    51   143   142    1
    52   147   146    1
    53   147   148   ar
    54    68    67    2
    55   104   102   ar
    56   150   148   ar
    57    67    69   am
    58   102   103   ar
    59   110   111   ar
    60   110   112   ar
    61   111   113   ar
    62   113   114   ar
    63   112   115   ar
    64   112   114   ar
    65    61    59   ar
    66   115   117   ar
    67   114   116   ar
    68    59    60   ar
    69    59    58    1
    70   127   125   ar
    71    58    57    1
    72   125   124    1
    73   125   126   ar
    74    19    18    1
    75    17    18    2
    76    17    16    1
    77   124   123    1
    78    18    20    1
    79    16    15    1
    80    14    15    1
    81    14    11    1
    82   117   118   ar
    83    10    11    1
    84   116   118   ar
    85    57    54    1
    86    52    50   am
    87   123   120    1
    88    11    12    1
    89    54    53    1
    90    54    55    1
    91    53    47   am
    92    13    12    2
    93    50    51    2
    94    50    49    1
    95    55    56    2
    96   120   121    1
    97   120   119    1
    98   122   121    2
    99    44    42   ar
   100    44    43   ar
   101    47    46    1
   102    47    48    2
   103    42    40   ar
   104    46    49    1
   105    46    45    1
   106     9     7   am
   107   121   128   am
   108   134   136   ar
   109   134   133   ar
   110    30    29   ar
   111    30    28   ar
   112   136   137   ar
   113    43    41   ar
   114     8     7    2
   115    29    27   ar
   116     7     6    1
   117    28    26   ar
   118    40    39   ar
   119    40    38   ar
   120   128   129    1
   121   133   132    1
   122   133   135   ar
   123   132   129    1
   124    39    37   ar
   125   137   135   ar
   126   137   139   ar
   127   129   130    1
   128    41    38   ar
   129    27    26   ar
   130   130   131    2
   131    38    36   ar
   132     6     5    1
   133    26    25    1
   134   135   138   ar
   135     5     2    1
   136   139   141   ar
   137    37    36   ar
   138     4     3    2
   139    36    35    1
   140    25    22    1
   141   138   140   ar
   142     3     2    1
   143     2     1    1
   144   141   140   ar
   145    22    23    1
   146    22    21    1
   147    24    23    2
   148    23    31   am
   149    35    32    1
   150    31    32    1
   151    32    33    1
   152    33    34    2
