@<TRIPOS>MOLECULE
tmp/2jifA01.pdb
 216 208 0 0 0
SMALL
GASTEIGER

@<TRIPOS>ATOM
      1  N         85.2670   95.6690   -2.9050 N.3    94  LEU94      -0.1245
      2  CA        85.6940   95.3580   -4.2660 C.3    94  LEU94       0.1561
      3  C         84.5630   94.7080   -5.0360 C.2    94  LEU94       0.2260
      4  O         84.0640   95.2990   -5.9850 O.2    94  LEU94      -0.2867
      5  CB        86.9560   94.4850   -4.3050 C.3    94  LEU94       0.0270
      6  CG        88.2330   95.0400   -3.6570 C.3    94  LEU94       0.0019
      7  CD1       89.4420   94.1560   -4.0490 C.3    94  LEU94       0.0001
      8  CD2       88.4970   96.5220   -3.9970 C.3    94  LEU94       0.0001
      9  N         88.4900   88.9540   -6.5870 N.3   123  PHE123     -0.1241
     10  CA        88.8580   90.0500   -7.4790 C.3   123  PHE123      0.1605
     11  C         90.1650   89.6380   -8.1620 C.2   123  PHE123      0.2264
     12  O         91.1720   89.4440   -7.4870 O.2   123  PHE123     -0.2867
     13  CB        89.0340   91.3200   -6.6280 C.3   123  PHE123      0.0534
     14  CG        89.4530   92.5500   -7.3970 C.ar  123  PHE123     -0.0203
     15  CD1       88.5300   93.2970   -8.0980 C.ar  123  PHE123     -0.0042
     16  CD2       90.7740   92.9950   -7.3490 C.ar  123  PHE123     -0.0042
     17  CE1       88.9230   94.4670   -8.7840 C.ar  123  PHE123     -0.0003
     18  CE2       91.1770   94.1540   -8.0280 C.ar  123  PHE123     -0.0003
     19  CZ        90.2550   94.8920   -8.7390 C.ar  123  PHE123     -0.0000
     20  N         92.7930   90.5990  -10.7950 N.3   125  LEU125     -0.1231
     21  CA        93.4990   91.5830  -11.6020 C.3   125  LEU125      0.1693
     22  C         94.9590   91.1940  -11.8500 C.2   125  LEU125      0.2592
     23  O         95.4100   91.1550  -12.9950 O.2   125  LEU125     -0.2718
     24  CB        93.4330   92.9430  -10.9010 C.3   125  LEU125      0.0284
     25  CG        94.1220   94.1250  -11.5940 C.3   125  LEU125      0.0019
     26  CD1       93.5180   94.3420  -12.9790 C.3   125  LEU125      0.0001
     27  CD2       94.0370   95.3860  -10.7390 C.3   125  LEU125      0.0001
     28  N         95.6950   90.9170  -10.7740 N.am  126  SER126     -0.1952
     29  CA        97.1500   90.7670  -10.8370 C.3   126  SER126      0.1924
     30  C         97.5990   89.4890  -11.5400 C.2   126  SER126      0.2314
     31  O         96.8940   88.4690  -11.5390 O.2   126  SER126     -0.2863
     32  CB        97.7790   90.8560   -9.4230 C.3   126  SER126      0.2116
     33  OG        97.4150   92.0760   -8.7790 O.3   126  SER126     -0.2180
     34  N        101.8700   93.3340  -11.6470 N.3   131  GLY131     -0.1210
     35  CA       101.5660   93.5920  -10.2420 C.3   131  GLY131      0.1956
     36  C        101.2410   95.0530  -10.0550 C.2   131  GLY131      0.2613
     37  O        100.0820   95.4620  -10.1650 O.2   131  GLY131     -0.2717
     38  N        102.2670   95.8600   -9.7910 N.am  132  SER132     -0.1938
     39  CA       102.0600   97.3120   -9.7210 C.3   132  SER132      0.2055
     40  C        101.5610   97.8080  -11.0790 C.2   132  SER132      0.2643
     41  O        100.7030   98.6810  -11.1490 O.2   132  SER132     -0.2714
     42  CB       103.3470   98.0290   -9.3090 C.3   132  SER132      0.2130
     43  OG       103.7410   97.6180   -8.0180 O.3   132  SER132     -0.2179
     44  N        102.1190   97.2400  -12.1470 N.am  133  ASP133     -0.1957
     45  CA       101.7050   97.5110  -13.5170 C.3   133  ASP133      0.1840
     46  C        100.5230   96.5840  -13.9000 C.2   133  ASP133      0.2623
     47  O        100.6590   95.7110  -14.7560 O.2   133  ASP133     -0.2715
     48  CB       102.9190   97.3210  -14.4480 C.3   133  ASP133      0.1450
     49  CG       102.6860   97.8270  -15.8720 C.2   133  ASP133      0.3671
     50  OD1      101.6450   98.4580  -16.1470 O.co2 133  ASP133     -0.2456
     51  OD2      103.5700   97.5880  -16.7190 O.co2 133  ASP133     -0.2456
     52  N         99.3740   96.8050  -13.2500 N.am  134  SER134     -0.1936
     53  CA        98.1540   95.9670  -13.4200 C.3   134  SER134      0.2055
     54  C         97.7020   95.8940  -14.8510 C.2   134  SER134      0.2643
     55  O         97.2430   94.8540  -15.3190 O.2   134  SER134     -0.2714
     56  CB        96.9800   96.5370  -12.6150 C.3   134  SER134      0.2130
     57  OG        97.3390   96.7200  -11.2720 O.3   134  SER134     -0.2179
     58  N         97.8240   97.0150  -15.5510 N.am  135  PHE135     -0.1973
     59  CA        97.2790   97.1370  -16.8910 C.3   135  PHE135      0.1639
     60  C         98.1660   96.5340  -17.9710 C.2   135  PHE135      0.2290
     61  O         97.7880   96.5580  -19.1410 O.2   135  PHE135     -0.2864
     62  CB        96.9420   98.6020  -17.2010 C.3   135  PHE135      0.0560
     63  CG        95.9420   99.2130  -16.2530 C.ar  135  PHE135     -0.0200
     64  CD1       95.1200   98.4190  -15.4450 C.ar  135  PHE135     -0.0042
     65  CD2       95.7920  100.5940  -16.1980 C.ar  135  PHE135     -0.0042
     66  CE1       94.2040   98.9850  -14.5870 C.ar  135  PHE135     -0.0003
     67  CE2       94.8650  101.1770  -15.3330 C.ar  135  PHE135     -0.0003
     68  CZ        94.0750  100.3660  -14.5240 C.ar  135  PHE135     -0.0000
     69  N         95.6890   99.3770  -22.3540 N.3   178  TYR178     -0.1227
     70  CA        94.8000   99.3490  -21.1940 C.3   178  TYR178      0.1736
     71  C         93.3310   99.5610  -21.5440 C.2   178  TYR178      0.2595
     72  O         92.4550   99.0790  -20.8310 O.2   178  TYR178     -0.2718
     73  CB        95.2600  100.3270  -20.0930 C.3   178  TYR178      0.0548
     74  CG        95.1170  101.8290  -20.3490 C.ar  178  TYR178     -0.0200
     75  CD1       93.8910  102.4840  -20.1880 C.ar  178  TYR178     -0.0009
     76  CD2       96.2360  102.6100  -20.6610 C.ar  178  TYR178     -0.0009
     77  CE1       93.7700  103.8690  -20.3900 C.ar  178  TYR178      0.0417
     78  CE2       96.1320  103.9940  -20.8500 C.ar  178  TYR178      0.0417
     79  CZ        94.8980  104.6160  -20.7180 C.ar  178  TYR178      0.1957
     80  OH        94.8140  105.9790  -20.9060 O.3   178  TYR178     -0.2866
     81  N         93.0670  100.2570  -22.6480 N.am  179  LYS179     -0.1980
     82  CA        91.6910  100.4900  -23.1080 C.3   179  LYS179      0.1596
     83  C         90.9760   99.2260  -23.6290 C.2   179  LYS179      0.2287
     84  O         89.7880   99.2760  -23.9540 O.2   179  LYS179     -0.2864
     85  CB        91.6760  101.6040  -24.1680 C.3   179  LYS179      0.0298
     86  CG        92.1400  102.9670  -23.6190 C.3   179  LYS179      0.0038
     87  CD        91.9730  104.0790  -24.6570 C.3   179  LYS179      0.0206
     88  CE        92.3820  105.4590  -24.1270 C.3   179  LYS179      0.1093
     89  NZ        91.5670  105.8770  -22.9480 N.3   179  LYS179     -0.1314
     90  N         89.5140   98.5470  -16.7840 N.3   232  TYR232     -0.1227
     91  CA        90.6280   99.2080  -16.1230 C.3   232  TYR232      0.1736
     92  C         90.0930  100.3270  -15.2220 C.2   232  TYR232      0.2595
     93  O         90.5520  100.4830  -14.0900 O.2   232  TYR232     -0.2718
     94  CB        91.6460   99.7390  -17.1490 C.3   232  TYR232      0.0548
     95  CG        91.2180  100.9820  -17.8910 C.ar  232  TYR232     -0.0200
     96  CD1       91.5280  102.2530  -17.3970 C.ar  232  TYR232     -0.0009
     97  CD2       90.5120  100.8970  -19.0870 C.ar  232  TYR232     -0.0009
     98  CE1       91.1340  103.3980  -18.0790 C.ar  232  TYR232      0.0417
     99  CE2       90.1150  102.0410  -19.7710 C.ar  232  TYR232      0.0417
    100  CZ        90.4290  103.2780  -19.2670 C.ar  232  TYR232      0.1957
    101  OH        90.0440  104.4010  -19.9390 O.3   232  TYR232     -0.2866
    102  N         89.0980  101.0690  -15.7050 N.am  233  LYS233     -0.1980
    103  CA        88.4890  102.1310  -14.8980 C.3   233  LYS233      0.1596
    104  C         87.7270  101.5730  -13.7000 C.2   233  LYS233      0.2287
    105  O         87.8460  102.0970  -12.5930 O.2   233  LYS233     -0.2864
    106  CB        87.5400  102.9980  -15.7220 C.3   233  LYS233      0.0298
    107  CG        88.0540  103.6700  -16.9820 C.3   233  LYS233      0.0038
    108  CD        87.0040  104.6530  -17.4980 C.3   233  LYS233      0.0206
    109  CE        87.5200  106.0820  -17.4070 C.3   233  LYS233      0.1093
    110  NZ        88.4190  106.3880  -18.5620 N.3   233  LYS233     -0.1314
    111  N         90.3510  100.0400  -10.9670 N.3   236  ILE236     -0.1231
    112  CA        91.0340  101.0520  -10.1760 C.3   236  ILE236      0.1692
    113  C         90.0440  101.9440   -9.4030 C.2   236  ILE236      0.2592
    114  O         90.3610  102.4220   -8.3180 O.2   236  ILE236     -0.2718
    115  CB        92.0560  101.8900  -11.0310 C.3   236  ILE236      0.0266
    116  CG1       93.0090  102.6880  -10.1190 C.3   236  ILE236      0.0019
    117  CG2       91.3410  102.8190  -11.9890 C.3   236  ILE236      0.0020
    118  CD1       93.7090  101.8840   -9.0130 C.3   236  ILE236      0.0001
    119  N         88.8450  102.1460   -9.9420 N.am  237  GLY237     -0.1957
    120  CA        87.7870  102.8040   -9.1850 C.3   237  GLY237      0.1869
    121  C         87.4810  102.0740   -7.8810 C.2   237  GLY237      0.2309
    122  O         87.3850  102.6900   -6.8150 O.2   237  GLY237     -0.2863
    123  N         89.4140   99.8610   -6.3570 N.3   239  LEU239     -0.1231
    124  CA        90.6500   99.9200   -5.5690 C.3   239  LEU239      0.1693
    125  C         90.8660  101.2460   -4.8180 C.2   239  LEU239      0.2592
    126  O         91.4600  101.2240   -3.7510 O.2   239  LEU239     -0.2718
    127  CB        91.8800   99.6040   -6.4410 C.3   239  LEU239      0.0284
    128  CG        91.9790   98.1190   -6.8200 C.3   239  LEU239      0.0019
    129  CD1       92.9990   97.8720   -7.9400 C.3   239  LEU239      0.0001
    130  CD2       92.3290   97.2960   -5.5960 C.3   239  LEU239      0.0001
    131  N         90.4040  102.3740   -5.3630 N.am  240  ASN240     -0.1974
    132  CA        90.4280  103.6640   -4.6400 C.3   240  ASN240      0.1688
    133  C         89.6050  103.5830   -3.3410 C.2   240  ASN240      0.2292
    134  O         90.0320  104.0860   -2.3010 O.2   240  ASN240     -0.2864
    135  CB        89.9130  104.8230   -5.5240 C.3   240  ASN240      0.1181
    136  CG        90.8870  105.2140   -6.6410 C.2   240  ASN240      0.2629
    137  OD1       92.0980  105.0360   -6.5250 O.2   240  ASN240     -0.2716
    138  ND2       90.3490  105.7680   -7.7240 N.am  240  ASN240     -0.0877
    139  N         91.2720  101.0580   -0.9240 N.3   243  ARG243     -0.1245
    140  CA        92.4160  101.6260   -0.2200 C.3   243  ARG243      0.1563
    141  C         92.0130  102.1870    1.1280 C.2   243  ARG243      0.2260
    142  O         92.7840  102.0810    2.0870 O.2   243  ARG243     -0.2867
    143  CB        93.1460  102.6410   -1.0830 C.3   243  ARG243      0.0307
    144  CG        94.0110  101.9020   -2.0920 C.3   243  ARG243      0.0489
    145  CD        94.3830  102.7190   -3.2790 C.3   243  ARG243      0.2205
    146  NE        95.0710  101.8920   -4.2750 N.pl3 243  ARG243     -0.0865
    147  CZ        95.6630  102.3810   -5.3640 C.cat 243  ARG243      0.5346
    148  NH1       95.6550  103.6900   -5.6150 N.pl3 243  ARG243      0.1354
    149  NH2       96.2720  101.5560   -6.2020 N.pl3 243  ARG243      0.1354
    150  N         90.3270  110.4860   -3.8050 N.3   313  ILE313     -0.1245
    151  CA        91.4080  109.5790   -4.2240 C.3   313  ILE313      0.1561
    152  C         92.7510  109.8940   -3.5220 C.2   313  ILE313      0.2260
    153  O         93.3920  108.9970   -2.9920 O.2   313  ILE313     -0.2867
    154  CB        91.5960  109.5380   -5.7630 C.3   313  ILE313      0.0252
    155  CG1       90.3220  109.0120   -6.4570 C.3   313  ILE313      0.0019
    156  CG2       92.7810  108.6390   -6.1320 C.3   313  ILE313      0.0019
    157  CD1       90.3070  109.2840   -7.9770 C.3   313  ILE313      0.0001
    158  N        100.0350   95.0500   -0.8170 N.3   362  TYR362     -0.1227
    159  CA        98.8350   94.8590   -1.5880 C.3   362  TYR362      0.1736
    160  C         97.9300   96.0990   -1.6250 C.2   362  TYR362      0.2595
    161  O         98.1310   97.0740   -0.8880 O.2   362  TYR362     -0.2718
    162  CB        98.1020   93.5500   -1.2080 C.3   362  TYR362      0.0548
    163  CG        97.3370   93.4770    0.0940 C.ar  362  TYR362     -0.0200
    164  CD1       96.6370   92.3200    0.4080 C.ar  362  TYR362     -0.0009
    165  CD2       97.2920   94.5320    1.0060 C.ar  362  TYR362     -0.0009
    166  CE1       95.9330   92.2050    1.5900 C.ar  362  TYR362      0.0417
    167  CE2       96.5820   94.4190    2.2160 C.ar  362  TYR362      0.0417
    168  CZ        95.9120   93.2540    2.4900 C.ar  362  TYR362      0.1957
    169  OH        95.2070   93.1090    3.6580 O.3   362  TYR362     -0.2866
    170  N         96.9680   96.0390   -2.5380 N.am  363  GLU363     -0.1965
    171  CA        96.0980   97.1460   -2.8840 C.3   363  GLU363      0.1733
    172  C         96.9060   98.4020   -3.2680 C.2   363  GLU363      0.2616
    173  O         96.4880   99.5350   -2.9970 O.2   363  GLU363     -0.2715
    174  CB        95.0830   97.3890   -1.7590 C.3   363  GLU363      0.0429
    175  CG        93.9430   96.2900   -1.7170 C.3   363  GLU363      0.1163
    176  CD        92.5710   96.9070   -1.7810 C.2   363  GLU363      0.3649
    177  OE1       92.5110   98.0930   -2.1770 O.co2 363  GLU363     -0.2457
    178  OE2       91.5610   96.2290   -1.4740 O.co2 363  GLU363     -0.2457
    179  N         98.0450   98.1790   -3.9270 N.am  364  GLY364     -0.1955
    180  CA        98.9150   99.2570   -4.3820 C.3   364  GLY364      0.1869
    181  C        100.0010   99.5050   -3.3430 C.2   364  GLY364      0.2309
    182  O         99.7360  100.0300   -2.2660 O.2   364  GLY364     -0.2863
    183  N        103.4900  103.1830   -4.9960 N.3   368  ILE368     -0.1245
    184  CA       102.3690  103.4610   -5.8760 C.3   368  ILE368      0.1561
    185  C        101.4290  104.4780   -5.2130 C.2   368  ILE368      0.2260
    186  O        100.9150  105.3770   -5.8700 O.2   368  ILE368     -0.2867
    187  CB       101.6150  102.1370   -6.2420 C.3   368  ILE368      0.0252
    188  CG1      102.5690  101.1290   -6.9150 C.3   368  ILE368      0.0019
    189  CG2      100.3430  102.4140   -7.0770 C.3   368  ILE368      0.0019
    190  CD1      103.5060  101.6760   -7.9680 C.3   368  ILE368      0.0001
    191  N        100.5760  108.2060   -6.7310 N.3   372  THR372     -0.1218
    192  CA        99.1960  108.6730   -6.8480 C.3   372  THR372      0.1862
    193  C         99.0090  110.0120   -6.1170 C.2   372  THR372      0.2287
    194  O         98.4600  110.9420   -6.6720 O.2   372  THR372     -0.2866
    195  CB        98.1980  107.6430   -6.2850 C.3   372  THR372      0.1770
    196  OG1       98.3140  106.4140   -7.0110 O.3   372  THR372     -0.2211
    197  CG2       96.7430  108.1860   -6.3670 C.3   372  THR372      0.0375
    198  N        100.6470  112.8520   -8.0780 N.3   375  LYS375     -0.1231
    199  CA        99.8680  113.2530   -9.2570 C.3   375  LYS375      0.1693
    200  C         98.7730  114.2490   -8.8910 C.2   375  LYS375      0.2592
    201  O         98.5560  115.2370   -9.5890 O.2   375  LYS375     -0.2718
    202  CB        99.2770  112.0390   -9.9930 C.3   375  LYS375      0.0285
    203  CG       100.3970  111.1950  -10.6520 C.3   375  LYS375      0.0035
    204  CD        99.6940  110.0840  -11.4320 C.3   375  LYS375      0.0206
    205  CE       100.6230  109.4610  -12.4640 C.3   375  LYS375      0.1093
    206  NZ       101.8430  108.9550  -11.7930 N.3   375  LYS375     -0.1314
    207  N         98.1290  114.0220   -7.7510 N.am  376  HIS376     -0.1976
    208  CA        97.0790  114.9290   -7.2760 C.3   376  HIS376      0.1656
    209  C         97.6230  116.2720   -6.7820 C.2   376  HIS376      0.2291
    210  O         97.0450  117.3130   -7.0330 O.2   376  HIS376     -0.2864
    211  CB        96.2110  114.2200   -6.2260 C.3   376  HIS376      0.0771
    212  CG        95.2630  113.2440   -6.8390 C.ar  376  HIS376      0.0820
    213  ND1       93.9750  113.5890   -7.2020 N.ar  376  HIS376     -0.2267
    214  CD2       95.4370  111.9610   -7.2330 C.ar  376  HIS376      0.1154
    215  CE1       93.3860  112.5420   -7.7540 C.ar  376  HIS376      0.1986
    216  NE2       94.2510  111.5440   -7.7900 N.ar  376  HIS376     -0.2212
@<TRIPOS>BOND
     1    87    88    1
     2    87    86    1
     3    85    86    1
     4    85    82    1
     5    88    89    1
     6    84    83    2
     7    83    82    1
     8    82    81    1
     9    81    71   am
    10    69    70    1
    11    71    70    1
    12    71    72    2
    13    70    73    1
    14    80    79    1
    15    78    79   ar
    16    78    76   ar
    17    79    77   ar
    18    76    74   ar
    19    77    75   ar
    20    74    75   ar
    21    74    73    1
    22   101   100    1
    23    99   100   ar
    24    99    97   ar
    25   100    98   ar
    26    61    60    2
    27    97    95   ar
    28   110   109    1
    29    98    96   ar
    30    60    59    1
    31    95    96   ar
    32    95    94    1
    33   108   109    1
    34   108   107    1
    35    62    59    1
    36    62    63    1
    37    94    91    1
    38   107   106    1
    39    59    58    1
    40    90    91    1
    41    51    49   ar
    42    63    65   ar
    43    63    64   ar
    44    65    67   ar
    45    50    49   ar
    46    91    92    1
    47    49    48    1
    48   106   103    1
    49   102    92   am
    50   102   103    1
    51    58    54   am
    52    64    66   ar
    53    67    68   ar
    54    55    54    2
    55    92    93    2
    56   103   104    1
    57    54    53    1
    58    47    46    2
    59    66    68   ar
    60    48    45    1
    61    46    45    1
    62    46    52   am
    63   104   105    2
    64    45    44    1
    65    53    52    1
    66    53    56    1
    67    23    22    2
    68    26    25    1
    69    56    57    1
    70   205   206    1
    71   205   204    1
    72    44    40   am
    73   117   115    1
    74    22    21    1
    75    22    28   am
    76    34    35    1
    77    21    24    1
    78    21    20    1
    79    25    24    1
    80    25    27    1
    81    30    31    2
    82    30    29    1
    83   204   203    1
    84    41    40    2
    85    40    39    1
    86   115   112    1
    87   115   116    1
    88   111   112    1
    89    29    28    1
    90    29    32    1
    91   203   202    1
    92    35    36    1
    93   112   113    1
    94    37    36    2
    95   116   118    1
    96    36    38   am
    97   202   199    1
    98   119   113   am
    99   119   120    1
   100    38    39    1
   101    39    42    1
   102   201   200    2
   103    32    33    1
   104   113   114    2
   105    42    43    1
   106   199   200    1
   107   199   198    1
   108   120   121    1
   109   200   207   am
   110    17    19   ar
   111    17    15   ar
   112    19    18   ar
   113    11    12    2
   114    11    10    1
   115    15    14   ar
   116    18    16   ar
   117   157   155    1
   118   190   188    1
   119   129   128    1
   120   121   122    2
   121   216   215   ar
   122   216   214   ar
   123   215   213   ar
   124   207   208    1
   125   138   136   am
   126    10    13    1
   127    10     9    1
   128    14    16   ar
   129    14    13    1
   130   208   209    1
   131   208   211    1
   132   214   212   ar
   133   213   212   ar
   134   189   187    1
   135   210   209    2
   136   196   195    1
   137   188   187    1
   138   192   191    1
   139   192   195    1
   140   192   193    1
   141   212   211    1
   142   128   127    1
   143   128   130    1
   144   194   193    2
   145   136   137    2
   146   136   135    1
   147   155   154    1
   148   127   124    1
   149   197   195    1
   150   123   124    1
   151   187   184    1
   152   149   147    1
   153   156   154    1
   154     4     3    2
   155   184   185    1
   156   184   183    1
   157   186   185    2
   158   154   151    1
   159   148   147    1
   160   124   125    1
   161   135   132    1
   162   147   146    2
   163   131   125   am
   164   131   132    1
   165     3     2    1
   166   125   126    2
   167   132   133    1
   168   180   179    1
   169   180   181    1
   170     5     2    1
   171     5     6    1
   172   146   145    1
   173     2     1    1
   174   151   150    1
   175   151   152    1
   176     7     6    1
   177     8     6    1
   178   179   172   am
   179   152   153    2
   180   181   182    2
   181   133   134    2
   182   145   144    1
   183   172   173    2
   184   172   171    1
   185   171   170    1
   186   171   174    1
   187   170   160   am
   188   177   176   ar
   189   144   143    1
   190   176   175    1
   191   176   178   ar
   192   174   175    1
   193   160   159    1
   194   160   161    2
   195   159   162    1
   196   159   158    1
   197   162   163    1
   198   143   140    1
   199   139   140    1
   200   140   141    1
   201   163   164   ar
   202   163   165   ar
   203   164   166   ar
   204   165   167   ar
   205   141   142    2
   206   166   168   ar
   207   167   168   ar
   208   168   169    1
