@<TRIPOS>MOLECULE
tmp/2jifA02.pdb
 139 137 0 0 0
SMALL
GASTEIGER

@<TRIPOS>ATOM
      1  N         99.7420   94.9640   29.4950 N.3   264  TYR264     -0.1241
      2  CA       100.9450   94.2020   29.8050 C.3   264  TYR264      0.1605
      3  C        102.0620   95.0750   30.4150 C.2   264  TYR264      0.2264
      4  O        102.6670   94.7190   31.4430 O.2   264  TYR264     -0.2867
      5  CB       101.4690   93.4380   28.5630 C.3   264  TYR264      0.0534
      6  CG       102.6540   92.5670   28.9130 C.ar  264  TYR264     -0.0201
      7  CD1      102.4770   91.2940   29.4560 C.ar  264  TYR264     -0.0009
      8  CD2      103.9580   93.0390   28.7450 C.ar  264  TYR264     -0.0009
      9  CE1      103.5850   90.5090   29.8170 C.ar  264  TYR264      0.0417
     10  CE2      105.0560   92.2730   29.0910 C.ar  264  TYR264      0.0417
     11  CZ       104.8730   91.0130   29.6310 C.ar  264  TYR264      0.1957
     12  OH       105.9930   90.2650   29.9930 O.3   264  TYR264     -0.2866
     13  N        103.7630   94.4410   34.0500 N.3   268  ARG268     -0.1245
     14  CA       105.0990   93.8480   34.1010 C.3   268  ARG268      0.1563
     15  C        106.0270   94.7880   34.8680 C.2   268  ARG268      0.2260
     16  O        106.1240   95.9650   34.5270 O.2   268  ARG268     -0.2867
     17  CB       105.6430   93.5840   32.6880 C.3   268  ARG268      0.0307
     18  CG       106.7380   92.4880   32.6140 C.3   268  ARG268      0.0489
     19  CD       108.0680   92.9140   33.2300 C.3   268  ARG268      0.2205
     20  NE       109.1480   92.0250   32.7850 N.pl3 268  ARG268     -0.0865
     21  CZ       109.3870   90.8100   33.2730 C.cat 268  ARG268      0.5346
     22  NH1      108.6770   90.3110   34.2860 N.pl3 268  ARG268      0.1354
     23  NH2      110.3750   90.0970   32.7490 N.pl3 268  ARG268      0.1354
     24  N        109.9560   95.5340   36.2480 N.3   270  GLN270     -0.1231
     25  CA       111.4190   95.3580   36.2640 C.3   270  GLN270      0.1698
     26  C        112.0320   96.5420   36.9970 C.2   270  GLN270      0.2592
     27  O        111.4960   97.6500   36.9290 O.2   270  GLN270     -0.2718
     28  CB       111.9950   95.2700   34.8360 C.3   270  GLN270      0.0381
     29  CG       111.6560   93.9800   34.1050 C.3   270  GLN270      0.0905
     30  CD       112.4530   92.7890   34.6120 C.2   270  GLN270      0.2608
     31  OE1      113.5800   92.5560   34.1650 O.2   270  GLN270     -0.2717
     32  NE2      111.8730   92.0240   35.5570 N.am  270  GLN270     -0.0878
     33  N        113.1380   96.3000   37.7030 N.am  271  PHE271     -0.1976
     34  CA       113.8410   97.3290   38.4800 C.3   271  PHE271      0.1639
     35  C        112.8830   98.0350   39.4470 C.2   271  PHE271      0.2290
     36  O        113.0090   99.2380   39.6900 O.2   271  PHE271     -0.2864
     37  CB       114.4950   98.3740   37.5660 C.3   271  PHE271      0.0560
     38  CG       115.3970   97.8000   36.5120 C.ar  271  PHE271     -0.0200
     39  CD1      116.7430   97.5390   36.7940 C.ar  271  PHE271     -0.0042
     40  CD2      114.9150   97.5470   35.2400 C.ar  271  PHE271     -0.0042
     41  CE1      117.5890   97.0340   35.8090 C.ar  271  PHE271     -0.0003
     42  CE2      115.7510   97.0270   34.2440 C.ar  271  PHE271     -0.0003
     43  CZ       117.0920   96.7740   34.5310 C.ar  271  PHE271     -0.0000
     44  N        106.9400   98.7170   33.6140 N.3   275  LEU275     -0.1245
     45  CA       107.6000   99.0430   32.3440 C.3   275  LEU275      0.1561
     46  C        107.0800  100.3770   31.7880 C.2   275  LEU275      0.2260
     47  O        107.8370  101.1560   31.2060 O.2   275  LEU275     -0.2867
     48  CB       107.3860   97.9360   31.3040 C.3   275  LEU275      0.0270
     49  CG       107.9880   96.5460   31.5820 C.3   275  LEU275      0.0019
     50  CD1      107.6020   95.5780   30.4510 C.3   275  LEU275      0.0001
     51  CD2      109.5100   96.5920   31.7870 C.3   275  LEU275      0.0001
     52  N        109.0200  103.6450   32.7020 N.3   278  PHE278     -0.1241
     53  CA       110.2840  104.0600   32.0990 C.3   278  PHE278      0.1605
     54  C        109.9750  105.0620   31.0030 C.2   278  PHE278      0.2264
     55  O        109.2790  104.7380   30.0510 O.2   278  PHE278     -0.2867
     56  CB       111.0450  102.8620   31.5640 C.3   278  PHE278      0.0534
     57  CG       111.5120  101.9530   32.6470 C.ar  278  PHE278     -0.0203
     58  CD1      112.5020  102.3660   33.5190 C.ar  278  PHE278     -0.0042
     59  CD2      110.9360  100.7000   32.8240 C.ar  278  PHE278     -0.0042
     60  CE1      112.9310  101.5400   34.5550 C.ar  278  PHE278     -0.0003
     61  CE2      111.3560   99.8650   33.8630 C.ar  278  PHE278     -0.0003
     62  CZ       112.3530  100.2900   34.7250 C.ar  278  PHE278     -0.0000
     63  N        111.5020  106.4440   28.4920 N.3   280  GLY280     -0.1210
     64  CA       111.7960  106.0870   27.1090 C.3   280  GLY280      0.1956
     65  C        110.6950  105.2700   26.4580 C.2   280  GLY280      0.2611
     66  O        110.2870  105.5220   25.3210 O.2   280  GLY280     -0.2717
     67  N        110.2070  104.2970   27.2080 N.am  281  LEU281     -0.1979
     68  CA       109.1250  103.4500   26.7630 C.3   281  LEU281      0.1596
     69  C        107.8100  104.2440   26.7110 C.2   281  LEU281      0.2287
     70  O        107.0290  104.1000   25.7780 O.2   281  LEU281     -0.2864
     71  CB       109.0520  102.2340   27.6950 C.3   281  LEU281      0.0297
     72  CG       108.2620  101.0170   27.2340 C.3   281  LEU281      0.0022
     73  CD1      108.7260   99.7590   27.9860 C.3   281  LEU281      0.0001
     74  CD2      106.7960  101.2860   27.5080 C.3   281  LEU281      0.0001
     75  N        108.6940   94.7250   20.9560 N.3   336  GLU336     -0.1231
     76  CA       109.7790   95.2420   21.8240 C.3   336  GLU336      0.1699
     77  C        109.3090   95.5940   23.2450 C.2   336  GLU336      0.2592
     78  O        109.9980   95.2860   24.2290 O.2   336  GLU336     -0.2718
     79  CB       110.4360   96.4610   21.1870 C.3   336  GLU336      0.0402
     80  CG       111.1980   96.1330   19.9230 C.3   336  GLU336      0.1161
     81  CD       111.7440   97.3620   19.2090 C.2   336  GLU336      0.3649
     82  OE1      111.6570   98.5020   19.7490 O.co2 336  GLU336     -0.2457
     83  OE2      112.2710   97.1800   18.0950 O.co2 336  GLU336     -0.2457
     84  N        108.1390   96.2070   23.3450 N.am  337  TRP337     -0.1962
     85  CA       107.5890   96.5740   24.6560 C.3   337  TRP337      0.1771
     86  C        107.2640   95.3270   25.4620 C.2   337  TRP337      0.2620
     87  O        107.4470   95.3230   26.6730 O.2   337  TRP337     -0.2715
     88  CB       106.3380   97.4420   24.5340 C.3   337  TRP337      0.0590
     89  CG       106.5590   98.7290   23.7830 C.ar  337  TRP337      0.0006
     90  CD1      107.7450   99.3950   23.5970 C.ar  337  TRP337      0.0946
     91  CD2      105.5550   99.5040   23.1240 C.ar  337  TRP337      0.0152
     92  NE1      107.5310  100.5260   22.8400 N.ar  337  TRP337     -0.2442
     93  CE2      106.1940  100.6200   22.5480 C.ar  337  TRP337      0.0810
     94  CE3      104.1670   99.3610   22.9660 C.ar  337  TRP337      0.0012
     95  CZ2      105.4910  101.5900   21.8140 C.ar  337  TRP337      0.0191
     96  CZ3      103.4780  100.3140   22.2400 C.ar  337  TRP337      0.0001
     97  CH2      104.1410  101.4140   21.6730 C.ar  337  TRP337      0.0015
     98  N        106.7840   94.2880   24.7860 N.am  338  MET338     -0.1963
     99  CA       106.5050   93.0040   25.4420 C.3   338  MET338      0.1736
    100  C        107.7850   92.2760   25.8970 C.2   338  MET338      0.2617
    101  O        107.7530   91.5060   26.8520 O.2   338  MET338     -0.2715
    102  CB       105.7460   92.0560   24.5090 C.3   338  MET338      0.0427
    103  CG       104.3890   92.5120   23.9810 C.3   338  MET338      0.0599
    104  SD       103.0390   92.5130   25.1580 S.3   338  MET338     -0.1393
    105  CE       102.9170   90.7750   25.5850 C.3   338  MET338      0.0692
    106  N        108.8870   92.4720   25.1750 N.am  339  GLY339     -0.1940
    107  CA       110.1290   91.7220   25.3990 C.3   339  GLY339      0.2014
    108  C        110.0140   90.2860   24.8900 C.2   339  GLY339      0.2639
    109  O        109.2810   90.0170   23.9400 O.2   339  GLY339     -0.2714
    110  N        110.7090   89.3630   25.5550 N.am  340  GLY340     -0.1939
    111  CA       110.7710   87.9720   25.1100 C.3   340  GLY340      0.2014
    112  C        109.4290   87.3330   24.7710 C.2   340  GLY340      0.2638
    113  O        109.2880   86.6730   23.7230 O.2   340  GLY340     -0.2714
    114  N        108.4370   87.5250   25.6490 N.am  341  VAL341     -0.1977
    115  CA       107.1000   86.9470   25.4220 C.3   341  VAL341      0.1596
    116  C        106.4500   87.4170   24.1020 C.2   341  VAL341      0.2287
    117  O        105.6980   86.6670   23.4770 O.2   341  VAL341     -0.2864
    118  CB       106.1220   87.2080   26.6040 C.3   341  VAL341      0.0276
    119  CG1      106.5340   86.4410   27.8500 C.3   341  VAL341      0.0022
    120  CG2      105.9590   88.7200   26.8650 C.3   341  VAL341      0.0022
    121  N        107.9100   87.7700   21.3340 N.3   343  TYR343     -0.1227
    122  CA       108.5280   87.0010   20.2430 C.3   343  TYR343      0.1736
    123  C        107.9840   85.5760   20.1650 C.2   343  TYR343      0.2596
    124  O        108.3880   84.7990   19.2920 O.2   343  TYR343     -0.2718
    125  CB       110.0610   86.9980   20.4240 C.3   343  TYR343      0.0548
    126  CG       110.8810   86.7730   19.1560 C.ar  343  TYR343     -0.0200
    127  CD1      110.8980   87.7170   18.1280 C.ar  343  TYR343     -0.0009
    128  CD2      111.6650   85.6230   19.0000 C.ar  343  TYR343     -0.0009
    129  CE1      111.6480   87.5150   16.9650 C.ar  343  TYR343      0.0417
    130  CE2      112.4300   85.4180   17.8410 C.ar  343  TYR343      0.0417
    131  CZ       112.4110   86.3740   16.8340 C.ar  343  TYR343      0.1957
    132  OH       113.1530   86.1880   15.6960 O.3   343  TYR343     -0.2866
    133  N        107.0790   85.2120   21.0790 N.am  344  THR344     -0.1953
    134  CA       106.5050   83.8680   21.0780 C.3   344  THR344      0.1897
    135  C        105.0690   83.8550   20.5570 C.2   344  THR344      0.2313
    136  O        104.3190   84.8400   20.6940 O.2   344  THR344     -0.2863
    137  CB       106.5360   83.2150   22.4880 C.3   344  THR344      0.1794
    138  OG1      105.5510   83.8410   23.3350 O.3   344  THR344     -0.2208
    139  CG2      107.9330   83.3510   23.1300 C.3   344  THR344      0.0378
@<TRIPOS>BOND
     1   132   131    1
     2   131   129   ar
     3   131   130   ar
     4   129   127   ar
     5   130   128   ar
     6    83    81   ar
     7   127   126   ar
     8   128   126   ar
     9   126   125    1
    10    81    82   ar
    11    81    80    1
    12   124   123    2
    13    80    79    1
    14   123   122    1
    15   123   133   am
    16   122   125    1
    17   122   121    1
    18   135   136    2
    19   135   134    1
    20    75    76    1
    21   134   133    1
    22   134   137    1
    23    79    76    1
    24    97    95   ar
    25    97    96   ar
    26    95    93   ar
    27    76    77    1
    28    96    94   ar
    29   137   139    1
    30   137   138    1
    31    93    92   ar
    32    93    91   ar
    33    92    90   ar
    34    94    91   ar
    35    91    89   ar
    36    77    84   am
    37    77    78    2
    38    84    85    1
    39   117   116    2
    40    90    89   ar
    41   113   112    2
    42    89    88    1
    43   109   108    2
    44   103   102    1
    45   103   104    1
    46   116   115    1
    47   102    99    1
    48    88    85    1
    49    85    86    1
    50   112   111    1
    51   112   114   am
    52    98    99    1
    53    98    86   am
    54   108   107    1
    55   108   110   am
    56   111   110    1
    57   104   105    1
    58   106   107    1
    59   106   100   am
    60    66    65    2
    61   115   114    1
    62   115   118    1
    63    99   100    1
    64    86    87    2
    65    70    69    2
    66   100   101    2
    67    65    64    1
    68    65    67   am
    69   118   120    1
    70   118   119    1
    71    69    68    1
    72    68    67    1
    73    68    71    1
    74    64    63    1
    75    72    74    1
    76    72    71    1
    77    72    73    1
    78     5     6    1
    79     5     2    1
    80     8     6   ar
    81     8    10   ar
    82     6     7   ar
    83    10    11   ar
    84     7     9   ar
    85     1     2    1
    86    11     9   ar
    87    11    12    1
    88     2     3    1
    89    55    54    2
    90     3     4    2
    91    50    49    1
    92    54    53    1
    93    47    46    2
    94    48    49    1
    95    48    45    1
    96    56    53    1
    97    56    57    1
    98    49    51    1
    99    46    45    1
   100    53    52    1
   101    45    44    1
   102    18    17    1
   103    18    19    1
   104    57    59   ar
   105    57    58   ar
   106    17    14    1
   107    23    21    1
   108    20    19    1
   109    20    21    2
   110    59    61   ar
   111    21    22    1
   112    58    60   ar
   113    61    62   ar
   114    13    14    1
   115    14    15    1
   116    29    30    1
   117    29    28    1
   118    31    30    2
   119    42    43   ar
   120    42    40   ar
   121    16    15    2
   122    43    41   ar
   123    60    62   ar
   124    30    32   am
   125    28    25    1
   126    40    38   ar
   127    41    39   ar
   128    24    25    1
   129    25    26    1
   130    38    39   ar
   131    38    37    1
   132    27    26    2
   133    26    33   am
   134    37    34    1
   135    33    34    1
   136    34    35    1
   137    35    36    2
