@<TRIPOS>MOLECULE
tmp/2jifA00.pdb
 195 186 0 0 0
SMALL
GASTEIGER

@<TRIPOS>ATOM
      1  N         87.2730   92.6120    0.8620 N.3    90  ILE90      -0.1245
      2  CA        87.1850   92.2700   -0.5630 C.3    90  ILE90       0.1561
      3  C         85.7140   92.1480   -1.0100 C.2    90  ILE90       0.2260
      4  O         85.3040   92.7520   -2.0140 O.2    90  ILE90      -0.2867
      5  CB        87.9270   90.9400   -0.8800 C.3    90  ILE90       0.0252
      6  CG1       89.4270   91.0620   -0.6100 C.3    90  ILE90       0.0019
      7  CG2       87.7170   90.5260   -2.3610 C.3    90  ILE90       0.0019
      8  CD1       90.0660   89.7120   -0.2590 C.3    90  ILE90       0.0001
      9  N         85.2670   95.6690   -2.9050 N.3    94  LEU94      -0.1245
     10  CA        85.6940   95.3580   -4.2660 C.3    94  LEU94       0.1561
     11  C         84.5630   94.7080   -5.0360 C.2    94  LEU94       0.2260
     12  O         84.0640   95.2990   -5.9850 O.2    94  LEU94      -0.2867
     13  CB        86.9560   94.4850   -4.3050 C.3    94  LEU94       0.0270
     14  CG        88.2330   95.0400   -3.6570 C.3    94  LEU94       0.0019
     15  CD1       89.4420   94.1560   -4.0490 C.3    94  LEU94       0.0001
     16  CD2       88.4970   96.5220   -3.9970 C.3    94  LEU94       0.0001
     17  N         88.4900   88.9540   -6.5870 N.3   123  PHE123     -0.1241
     18  CA        88.8580   90.0500   -7.4790 C.3   123  PHE123      0.1605
     19  C         90.1650   89.6380   -8.1620 C.2   123  PHE123      0.2264
     20  O         91.1720   89.4440   -7.4870 O.2   123  PHE123     -0.2867
     21  CB        89.0340   91.3200   -6.6280 C.3   123  PHE123      0.0534
     22  CG        89.4530   92.5500   -7.3970 C.ar  123  PHE123     -0.0203
     23  CD1       88.5300   93.2970   -8.0980 C.ar  123  PHE123     -0.0042
     24  CD2       90.7740   92.9950   -7.3490 C.ar  123  PHE123     -0.0042
     25  CE1       88.9230   94.4670   -8.7840 C.ar  123  PHE123     -0.0003
     26  CE2       91.1770   94.1540   -8.0280 C.ar  123  PHE123     -0.0003
     27  CZ        90.2550   94.8920   -8.7390 C.ar  123  PHE123     -0.0000
     28  N         92.7930   90.5990  -10.7950 N.3   125  LEU125     -0.1231
     29  CA        93.4990   91.5830  -11.6020 C.3   125  LEU125      0.1693
     30  C         94.9590   91.1940  -11.8500 C.2   125  LEU125      0.2593
     31  O         95.4100   91.1550  -12.9950 O.2   125  LEU125     -0.2718
     32  CB        93.4330   92.9430  -10.9010 C.3   125  LEU125      0.0284
     33  CG        94.1220   94.1250  -11.5940 C.3   125  LEU125      0.0019
     34  CD1       93.5180   94.3420  -12.9790 C.3   125  LEU125      0.0001
     35  CD2       94.0370   95.3860  -10.7390 C.3   125  LEU125      0.0001
     36  N         95.6950   90.9170  -10.7740 N.am  126  SER126     -0.1938
     37  CA        97.1500   90.7670  -10.8370 C.3   126  SER126      0.2055
     38  C         97.5990   89.4890  -11.5400 C.2   126  SER126      0.2643
     39  O         96.8940   88.4690  -11.5390 O.2   126  SER126     -0.2714
     40  CB        97.7790   90.8560   -9.4230 C.3   126  SER126      0.2130
     41  OG        97.4150   92.0760   -8.7790 O.3   126  SER126     -0.2179
     42  N         98.7720   89.5790  -12.1620 N.am  127  GLU127     -0.1963
     43  CA        99.4480   88.4450  -12.7800 C.3   127  GLU127      0.1733
     44  C        100.9240   88.5030  -12.3900 C.2   127  GLU127      0.2616
     45  O        101.3960   89.5070  -11.8590 O.2   127  GLU127     -0.2715
     46  CB        99.2830   88.4900  -14.3090 C.3   127  GLU127      0.0429
     47  CG        97.8380   88.6070  -14.7330 C.3   127  GLU127      0.1163
     48  CD        97.6050   88.6250  -16.2280 C.2   127  GLU127      0.3649
     49  OE1       98.5800   88.5780  -16.9990 O.co2 127  GLU127     -0.2457
     50  OE2       96.4210   88.7030  -16.6310 O.co2 127  GLU127     -0.2457
     51  N        101.6580   87.4310  -12.6710 N.am  128  ALA128     -0.1977
     52  CA       103.0910   87.4020  -12.3880 C.3   128  ALA128      0.1597
     53  C        103.8290   88.5460  -13.0990 C.2   128  ALA128      0.2287
     54  O        104.7960   89.0850  -12.5650 O.2   128  ALA128     -0.2864
     55  CB       103.6880   86.0270  -12.7730 C.3   128  ALA128      0.0319
     56  N        101.8700   93.3340  -11.6470 N.3   131  GLY131     -0.1210
     57  CA       101.5660   93.5920  -10.2420 C.3   131  GLY131      0.1956
     58  C        101.2410   95.0530  -10.0550 C.2   131  GLY131      0.2613
     59  O        100.0820   95.4620  -10.1650 O.2   131  GLY131     -0.2717
     60  N        102.2670   95.8600   -9.7910 N.am  132  SER132     -0.1938
     61  CA       102.0600   97.3120   -9.7210 C.3   132  SER132      0.2055
     62  C        101.5610   97.8080  -11.0790 C.2   132  SER132      0.2643
     63  O        100.7030   98.6810  -11.1490 O.2   132  SER132     -0.2714
     64  CB       103.3470   98.0290   -9.3090 C.3   132  SER132      0.2130
     65  OG       103.7410   97.6180   -8.0180 O.3   132  SER132     -0.2179
     66  N        102.1190   97.2400  -12.1470 N.am  133  ASP133     -0.1971
     67  CA       101.7050   97.5110  -13.5170 C.3   133  ASP133      0.1709
     68  C        100.5230   96.5840  -13.9000 C.2   133  ASP133      0.2293
     69  O        100.6590   95.7110  -14.7560 O.2   133  ASP133     -0.2864
     70  CB       102.9190   97.3210  -14.4480 C.3   133  ASP133      0.1436
     71  CG       102.6860   97.8270  -15.8720 C.2   133  ASP133      0.3671
     72  OD1      101.6450   98.4580  -16.1470 O.co2 133  ASP133     -0.2456
     73  OD2      103.5700   97.5880  -16.7190 O.co2 133  ASP133     -0.2456
     74  N         97.9900   85.7840   -7.0110 N.3   156  TRP156     -0.1227
     75  CA        97.7230   86.4820   -5.7420 C.3   156  TRP156      0.1737
     76  C         96.2410   86.6550   -5.4410 C.2   156  TRP156      0.2595
     77  O         95.8680   87.5850   -4.7500 O.2   156  TRP156     -0.2718
     78  CB        98.3960   87.8670   -5.6730 C.3   156  TRP156      0.0564
     79  CG        99.8180   87.8940   -6.0760 C.ar  156  TRP156      0.0003
     80  CD1      100.3570   88.5580   -7.1420 C.ar  156  TRP156      0.0946
     81  CD2      100.9030   87.2340   -5.4200 C.ar  156  TRP156      0.0152
     82  NE1      101.7090   88.3320   -7.2050 N.ar  156  TRP156     -0.2442
     83  CE2      102.0750   87.5210   -6.1640 C.ar  156  TRP156      0.0810
     84  CE3      100.9990   86.4160   -4.2910 C.ar  156  TRP156      0.0012
     85  CZ2      103.3310   87.0290   -5.8040 C.ar  156  TRP156      0.0191
     86  CZ3      102.2570   85.9290   -3.9220 C.ar  156  TRP156      0.0001
     87  CH2      103.4030   86.2270   -4.6880 C.ar  156  TRP156      0.0015
     88  N         95.3950   85.7510   -5.9050 N.am  157  ILE157     -0.1966
     89  CA        93.9550   85.9840   -5.7990 C.3   157  ILE157      0.1727
     90  C         93.4350   85.5630   -4.4310 C.2   157  ILE157      0.2616
     91  O         93.4060   84.3760   -4.0950 O.2   157  ILE157     -0.2715
     92  CB        93.1600   85.2710   -6.9300 C.3   157  ILE157      0.0290
     93  CG1       93.7200   85.6680   -8.3070 C.3   157  ILE157      0.0022
     94  CG2       91.6790   85.5990   -6.8150 C.3   157  ILE157      0.0023
     95  CD1       93.9220   87.1890   -8.5000 C.3   157  ILE157      0.0001
     96  N         93.0140   86.5600   -3.6640 N.am  158  SER158     -0.1950
     97  CA        92.5160   86.3570   -2.3310 C.3   158  SER158      0.1924
     98  C         91.1220   85.7290   -2.3500 C.2   158  SER158      0.2314
     99  O         90.2990   86.0260   -3.2310 O.2   158  SER158     -0.2863
    100  CB        92.5200   87.6710   -1.5420 C.3   158  SER158      0.2116
    101  OG        93.8360   88.1990   -1.4250 O.3   158  SER158     -0.2180
    102  N        102.3620   81.8740    3.3100 N.3   201  LYS201     -0.1245
    103  CA       102.6160   83.2920    3.5700 C.3   201  LYS201      0.1561
    104  C        103.1710   83.6050    4.9590 C.2   201  LYS201      0.2260
    105  O        102.9740   82.8660    5.9130 O.2   201  LYS201     -0.2867
    106  CB       101.3390   84.1060    3.3480 C.3   201  LYS201      0.0271
    107  CG       100.7310   83.9090    1.9710 C.3   201  LYS201      0.0035
    108  CD        99.7060   84.9530    1.5930 C.3   201  LYS201      0.0206
    109  CE        98.5920   85.1270    2.6080 C.3   201  LYS201      0.1093
    110  NZ        97.7320   83.9360    2.7480 N.3   201  LYS201     -0.1314
    111  N         98.6620   87.0240    7.3000 N.3   204  LEU204     -0.1245
    112  CA        97.3700   86.9540    6.5980 C.3   204  LEU204      0.1561
    113  C         97.1140   85.5100    6.1470 C.2   204  LEU204      0.2260
    114  O         96.5450   85.2380    5.0780 O.2   204  LEU204     -0.2867
    115  CB        97.3490   87.9330    5.4110 C.3   204  LEU204      0.0270
    116  CG        96.0150   88.6190    5.1370 C.3   204  LEU204      0.0019
    117  CD1       95.7590   89.6720    6.2340 C.3   204  LEU204      0.0001
    118  CD2       95.9910   89.2380    3.7100 C.3   204  LEU204      0.0001
    119  N         95.2390   82.6620   -0.8940 N.3   209  THR209     -0.1218
    120  CA        95.8660   83.5030   -1.8950 C.3   209  THR209      0.1862
    121  C         96.3780   82.5060   -2.9250 C.2   209  THR209      0.2287
    122  O         97.3030   81.7410   -2.6510 O.2   209  THR209     -0.2866
    123  CB        97.0330   84.3570   -1.2770 C.3   209  THR209      0.1770
    124  OG1       96.5810   85.0270   -0.0870 O.3   209  THR209     -0.2211
    125  CG2       97.5060   85.4080   -2.2520 C.3   209  THR209      0.0375
    126  N        101.8630   92.9250    5.1400 N.3   358  ILE358     -0.1245
    127  CA       101.1810   92.8920    3.8320 C.3   358  ILE358      0.1561
    128  C        100.6250   94.2740    3.4090 C.2   358  ILE358      0.2260
    129  O        100.4980   94.5660    2.2200 O.2   358  ILE358     -0.2867
    130  CB       100.0440   91.8210    3.7910 C.3   358  ILE358      0.0252
    131  CG1       99.5800   91.5560    2.3440 C.3   358  ILE358      0.0019
    132  CG2       98.8340   92.2440    4.6380 C.3   358  ILE358      0.0019
    133  CD1      100.6620   91.2960    1.3500 C.3   358  ILE358      0.0001
    134  N        102.1530   96.4580    0.7240 N.3   361  ILE361     -0.1231
    135  CA       102.3570   95.7480   -0.5280 C.3   361  ILE361      0.1692
    136  C        101.0780   95.6530   -1.3650 C.2   361  ILE361      0.2592
    137  O        101.0350   96.1240   -2.4950 O.2   361  ILE361     -0.2718
    138  CB       102.9220   94.3050   -0.2780 C.3   361  ILE361      0.0266
    139  CG1      104.2710   94.3660    0.4560 C.3   361  ILE361      0.0019
    140  CG2      103.0270   93.5470   -1.6080 C.3   361  ILE361      0.0020
    141  CD1      104.7970   93.0090    0.9300 C.3   361  ILE361      0.0001
    142  N        100.0350   95.0500   -0.8170 N.am  362  TYR362     -0.1962
    143  CA        98.8350   94.8590   -1.5880 C.3   362  TYR362      0.1771
    144  C         97.9300   96.0990   -1.6250 C.2   362  TYR362      0.2619
    145  O         98.1310   97.0740   -0.8880 O.2   362  TYR362     -0.2715
    146  CB        98.1020   93.5500   -1.2080 C.3   362  TYR362      0.0574
    147  CG        97.3370   93.4770    0.0940 C.ar  362  TYR362     -0.0198
    148  CD1       96.6370   92.3200    0.4080 C.ar  362  TYR362     -0.0009
    149  CD2       97.2920   94.5320    1.0060 C.ar  362  TYR362     -0.0009
    150  CE1       95.9330   92.2050    1.5900 C.ar  362  TYR362      0.0417
    151  CE2       96.5820   94.4190    2.2160 C.ar  362  TYR362      0.0417
    152  CZ        95.9120   93.2540    2.4900 C.ar  362  TYR362      0.1957
    153  OH        95.2070   93.1090    3.6580 O.3   362  TYR362     -0.2866
    154  N         96.9680   96.0390   -2.5380 N.am  363  GLU363     -0.1963
    155  CA        96.0980   97.1460   -2.8840 C.3   363  GLU363      0.1733
    156  C         96.9060   98.4020   -3.2680 C.2   363  GLU363      0.2617
    157  O         96.4880   99.5350   -2.9970 O.2   363  GLU363     -0.2715
    158  CB        95.0830   97.3890   -1.7590 C.3   363  GLU363      0.0429
    159  CG        93.9430   96.2900   -1.7170 C.3   363  GLU363      0.1163
    160  CD        92.5710   96.9070   -1.7810 C.2   363  GLU363      0.3649
    161  OE1       92.5110   98.0930   -2.1770 O.co2 363  GLU363     -0.2457
    162  OE2       91.5610   96.2290   -1.4740 O.co2 363  GLU363     -0.2457
    163  N         98.0450   98.1790   -3.9270 N.am  364  GLY364     -0.1940
    164  CA        98.9150   99.2570   -4.3820 C.3   364  GLY364      0.2014
    165  C        100.0010   99.5050   -3.3430 C.2   364  GLY364      0.2638
    166  O         99.7360  100.0300   -2.2660 O.2   364  GLY364     -0.2714
    167  N        101.2130   99.0690   -3.6480 N.am  365  ALA365     -0.1977
    168  CA       102.3180   99.1700   -2.7120 C.3   365  ALA365      0.1597
    169  C        102.5290  100.6370   -2.3140 C.2   365  ALA365      0.2287
    170  O        102.0800  101.5410   -2.9940 O.2   365  ALA365     -0.2864
    171  CB       103.5910   98.5930   -3.3210 C.3   365  ALA365      0.0319
    172  N        104.9850  102.8030   -2.6230 N.3   367  ASN367     -0.1225
    173  CA       105.4910  103.6610   -3.7020 C.3   367  ASN367      0.1785
    174  C        104.3940  104.1060   -4.6590 C.2   367  ASN367      0.2597
    175  O        104.3640  105.2590   -5.0760 O.2   367  ASN367     -0.2718
    176  CB       106.6170  102.9870   -4.5020 C.3   367  ASN367      0.1169
    177  CG       107.9450  102.9050   -3.7330 C.2   367  ASN367      0.2627
    178  OD1      108.0380  103.2660   -2.5450 O.2   367  ASN367     -0.2716
    179  ND2      108.9920  102.4360   -4.4240 N.am  367  ASN367     -0.0877
    180  N        103.4900  103.1830   -4.9960 N.am  368  ILE368     -0.1980
    181  CA       102.3690  103.4610   -5.8760 C.3   368  ILE368      0.1595
    182  C        101.4290  104.4780   -5.2130 C.2   368  ILE368      0.2287
    183  O        100.9150  105.3770   -5.8700 O.2   368  ILE368     -0.2864
    184  CB       101.6150  102.1370   -6.2420 C.3   368  ILE368      0.0276
    185  CG1      102.5690  101.1290   -6.9150 C.3   368  ILE368      0.0022
    186  CG2      100.3430  102.4140   -7.0770 C.3   368  ILE368      0.0022
    187  CD1      103.5060  101.6760   -7.9680 C.3   368  ILE368      0.0001
    188  N        103.1390  107.8490   -5.5340 N.3   371  ASN371     -0.1240
    189  CA       102.9900  108.2970   -6.9160 C.3   371  ASN371      0.1653
    190  C        101.6080  108.9010   -7.1930 C.2   371  ASN371      0.2266
    191  O        101.4860  109.9390   -7.8470 O.2   371  ASN371     -0.2867
    192  CB       103.1900  107.1250   -7.8900 C.3   371  ASN371      0.1155
    193  CG       104.6220  106.6180   -7.9350 C.2   371  ASN371      0.2627
    194  OD1      105.5540  107.2590   -7.4480 O.2   371  ASN371     -0.2716
    195  ND2      104.7990  105.4430   -8.5360 N.am  371  ASN371     -0.0877
@<TRIPOS>BOND
     1    49    48   ar
     2    73    71   ar
     3    50    48   ar
     4    48    47    1
     5    72    71   ar
     6    71    70    1
     7    69    68    2
     8    47    46    1
     9    70    67    1
    10    46    43    1
    11    68    67    1
    12    67    66    1
    13    53    54    2
    14    53    52    1
    15    31    30    2
    16    34    33    1
    17    43    44    1
    18    43    42    1
    19    55    52    1
    20    51    44   am
    21    51    52    1
    22    44    45    2
    23    42    38   am
    24    66    62   am
    25    30    29    1
    26    30    36   am
    27    56    57    1
    28    29    32    1
    29    29    28    1
    30    33    32    1
    31    33    35    1
    32    38    39    2
    33    38    37    1
    34    63    62    2
    35    62    61    1
    36    37    36    1
    37    37    40    1
    38    57    58    1
    39    59    58    2
    40    58    60   am
    41    60    61    1
    42    61    64    1
    43    40    41    1
    44    64    65    1
    45    25    27   ar
    46    25    23   ar
    47    27    26   ar
    48   195   193   am
    49    95    93    1
    50    93    92    1
    51    19    20    2
    52    19    18    1
    53    23    22   ar
    54    26    24   ar
    55   187   185    1
    56   193   192    1
    57   193   194    2
    58   192   189    1
    59   191   190    2
    60    18    21    1
    61    18    17    1
    62    22    24   ar
    63    22    21    1
    64    82    80   ar
    65    82    83   ar
    66   190   189    1
    67    80    79   ar
    68   186   184    1
    69    74    75    1
    70    92    94    1
    71    92    89    1
    72   189   188    1
    73   185   184    1
    74   184   181    1
    75    83    85   ar
    76    83    81   ar
    77    79    78    1
    78    79    81   ar
    79    12    11    2
    80    88    89    1
    81    88    76   am
    82   181   182    1
    83   181   180    1
    84   183   182    2
    85    85    87   ar
    86    89    90    1
    87    75    78    1
    88    75    76    1
    89    76    77    2
    90    81    84   ar
    91   175   174    2
    92    11    10    1
    93   180   174   am
    94    87    86   ar
    95   174   173    1
    96   176   177    1
    97   176   173    1
    98    90    91    2
    99    90    96   am
   100   179   177   am
   101   164   163    1
   102   164   165    1
   103    13    10    1
   104    13    14    1
   105    84    86   ar
   106    10     9    1
   107    15    14    1
   108    16    14    1
   109   163   156   am
   110   177   178    2
   111   173   172    1
   112    96    97    1
   113   167   165   am
   114   167   168    1
   115   165   166    2
   116   171   168    1
   117   156   157    2
   118   156   155    1
   119    99    98    2
   120   170   169    2
   121   121   122    2
   122   121   120    1
   123   155   154    1
   124   155   158    1
   125   168   169    1
   126   154   144   am
   127   137   136    2
   128     7     5    1
   129    98    97    1
   130    97   100    1
   131   125   123    1
   132   161   160   ar
   133     4     3    2
   134   120   123    1
   135   120   119    1
   136   160   159    1
   137   160   162   ar
   138   158   159    1
   139   144   143    1
   140   144   145    2
   141   140   138    1
   142   143   146    1
   143   143   142    1
   144   100   101    1
   145   136   142   am
   146   136   135    1
   147   123   124    1
   148   146   147    1
   149     3     2    1
   150     5     6    1
   151     5     2    1
   152     6     8    1
   153     2     1    1
   154   135   138    1
   155   135   134    1
   156   138   139    1
   157   147   148   ar
   158   147   149   ar
   159   148   150   ar
   160   139   141    1
   161   149   151   ar
   162   133   131    1
   163   150   152   ar
   164   108   107    1
   165   108   109    1
   166   107   106    1
   167   151   152   ar
   168   129   128    2
   169   131   130    1
   170   152   153    1
   171   109   110    1
   172   102   103    1
   173   106   103    1
   174   128   127    1
   175   103   104    1
   176   118   116    1
   177   130   127    1
   178   130   132    1
   179   127   126    1
   180   104   105    2
   181   114   113    2
   182   116   115    1
   183   116   117    1
   184   115   112    1
   185   113   112    1
   186   112   111    1
