@<TRIPOS>MOLECULE
tmp/2jigA00.pdb
 159 150 0 0 0
SMALL
GASTEIGER

@<TRIPOS>ATOM
      1  N          5.9310   16.5920  -29.3350 N.3    58  ARG58      -0.1245
      2  CA         4.5630   16.9240  -28.9900 C.3    58  ARG58       0.1563
      3  C          3.7360   16.7620  -30.2530 C.2    58  ARG58       0.2260
      4  O          3.8960   17.5190  -31.2060 O.2    58  ARG58      -0.2867
      5  CB         4.4540   18.3540  -28.4630 C.3    58  ARG58       0.0307
      6  CG         3.1030   18.6480  -27.8120 C.3    58  ARG58       0.0489
      7  CD         2.9530   20.1220  -27.4270 C.3    58  ARG58       0.2205
      8  NE         2.5330   20.9510  -28.5630 N.pl3  58  ARG58      -0.0865
      9  CZ         2.3600   22.2650  -28.4980 C.cat  58  ARG58       0.5346
     10  NH1        2.6000   22.9150  -27.3670 N.pl3  58  ARG58       0.1354
     11  NH2        1.9610   22.9390  -29.5710 N.pl3  58  ARG58       0.1354
     12  N         -1.5500   28.0940  -23.0650 N.3    95  GLN95      -0.1245
     13  CA        -1.2720   27.1570  -24.1530 C.3    95  GLN95       0.1566
     14  C         -2.3610   26.0640  -24.1620 C.2    95  GLN95       0.2260
     15  O         -2.4770   25.3100  -23.2020 O.2    95  GLN95      -0.2867
     16  CB         0.1190   26.5250  -23.9650 C.3    95  GLN95       0.0367
     17  CG         0.5730   25.6160  -25.1070 C.3    95  GLN95       0.0905
     18  CD         1.2840   26.3570  -26.2290 C.2    95  GLN95       0.2608
     19  OE1        1.7180   25.7350  -27.2010 O.2    95  GLN95      -0.2717
     20  NE2        1.4140   27.6800  -26.1050 N.am   95  GLN95      -0.0878
     21  N         -4.0200   22.6190  -25.7380 N.3    97  LEU97      -0.1245
     22  CA        -3.6500   21.4570  -26.5640 C.3    97  LEU97       0.1561
     23  C         -4.8050   20.4940  -26.7140 C.2    97  LEU97       0.2260
     24  O         -5.6690   20.3990  -25.8260 O.2    97  LEU97      -0.2867
     25  CB        -2.4750   20.7080  -25.9390 C.3    97  LEU97       0.0270
     26  CG        -1.2870   21.5620  -25.4900 C.3    97  LEU97       0.0019
     27  CD1       -0.3260   20.7300  -24.6500 C.3    97  LEU97       0.0001
     28  CD2       -0.6000   22.1170  -26.7530 C.3    97  LEU97       0.0001
     29  N         -5.1090   16.4040  -27.7260 N.3    99  TYR99      -0.1241
     30  CA        -4.5440   15.1380  -28.1640 C.3    99  TYR99       0.1605
     31  C         -5.6690   14.1650  -28.3780 C.2    99  TYR99       0.2264
     32  O         -6.6090   14.1160  -27.5850 O.2    99  TYR99      -0.2867
     33  CB        -3.7070   14.4940  -27.0570 C.3    99  TYR99       0.0534
     34  CG        -2.6850   15.3380  -26.3320 C.ar   99  TYR99      -0.0201
     35  CD1       -3.0770   16.2470  -25.3470 C.ar   99  TYR99      -0.0009
     36  CD2       -1.3160   15.1380  -26.5480 C.ar   99  TYR99      -0.0009
     37  CE1       -2.1220   17.0000  -24.6150 C.ar   99  TYR99       0.0417
     38  CE2       -0.3370   15.8830  -25.8130 C.ar   99  TYR99       0.0417
     39  CZ        -0.7500   16.8050  -24.8720 C.ar   99  TYR99       0.1957
     40  OH         0.1950   17.4910  -24.1280 O.3    99  TYR99      -0.2866
     41  N          2.8550   13.7060  -25.6050 N.3   105  TYR105     -0.1241
     42  CA         3.9540   14.6450  -25.4330 C.3   105  TYR105      0.1605
     43  C          5.0310   13.8570  -24.7090 C.2   105  TYR105      0.2264
     44  O          4.8420   13.4820  -23.5600 O.2   105  TYR105     -0.2867
     45  CB         3.5050   15.8500  -24.5990 C.3   105  TYR105      0.0534
     46  CG         4.3700   17.0930  -24.7600 C.ar  105  TYR105     -0.0201
     47  CD1        5.6620   17.0180  -25.2920 C.ar  105  TYR105     -0.0009
     48  CD2        3.8910   18.3400  -24.3780 C.ar  105  TYR105     -0.0009
     49  CE1        6.4670   18.1720  -25.4320 C.ar  105  TYR105      0.0417
     50  CE2        4.6770   19.4930  -24.5110 C.ar  105  TYR105      0.0417
     51  CZ         5.9600   19.3990  -25.0460 C.ar  105  TYR105      0.1957
     52  OH         6.7430   20.5300  -25.1790 O.3   105  TYR105     -0.2866
     53  N          9.6870   15.7880  -20.9050 N.3   108  HIS108     -0.1241
     54  CA        10.5610   16.9250  -21.1110 C.3   108  HIS108      0.1621
     55  C         10.5210   17.7510  -19.8200 C.2   108  HIS108      0.2264
     56  O          9.8310   17.4020  -18.8670 O.2   108  HIS108     -0.2867
     57  CB        10.0120   17.7780  -22.2620 C.3   108  HIS108      0.0745
     58  CG         8.5910   18.1980  -22.0410 C.ar  108  HIS108      0.0817
     59  ND1        7.5160   17.3960  -22.3740 N.ar  108  HIS108     -0.2268
     60  CD2        8.0740   19.2970  -21.4460 C.ar  108  HIS108      0.1154
     61  CE1        6.3970   18.0040  -22.0220 C.ar  108  HIS108      0.1986
     62  NE2        6.7070   19.1610  -21.4630 N.ar  108  HIS108     -0.2212
     63  N          9.8240   21.7750  -18.3400 N.3   110  ASP110     -0.1239
     64  CA         9.2220   23.0780  -18.6620 C.3   110  ASP110      0.1674
     65  C         10.1460   24.2520  -18.3030 C.2   110  ASP110      0.2266
     66  O          9.6990   25.4020  -18.2560 O.2   110  ASP110     -0.2867
     67  CB         7.8850   23.2620  -17.9210 C.3   110  ASP110      0.1410
     68  CG         6.7530   22.4290  -18.5030 C.2   110  ASP110      0.3668
     69  OD1        6.9210   21.7810  -19.5770 O.co2 110  ASP110     -0.2456
     70  OD2        5.6750   22.4250  -17.8680 O.co2 110  ASP110     -0.2456
     71  N          4.3330   25.1300  -13.2190 N.3   129  THR129     -0.1218
     72  CA         3.3960   24.9340  -14.3320 C.3   129  THR129      0.1862
     73  C          2.0550   24.5200  -13.7560 C.2   129  THR129      0.2287
     74  O          1.9900   23.7710  -12.7740 O.2   129  THR129     -0.2866
     75  CB         3.8810   23.8040  -15.2600 C.3   129  THR129      0.1770
     76  OG1        5.1430   24.1640  -15.8260 O.3   129  THR129     -0.2211
     77  CG2        2.8560   23.5050  -16.4090 C.3   129  THR129      0.0375
     78  N         -1.3190   22.6930  -15.2280 N.3   131  LEU131     -0.1245
     79  CA        -1.9240   21.9590  -16.2960 C.3   131  LEU131      0.1561
     80  C         -3.3810   21.7050  -15.9630 C.2   131  LEU131      0.2260
     81  O         -3.6840   20.9830  -15.0110 O.2   131  LEU131     -0.2867
     82  CB        -1.1760   20.6370  -16.4160 C.3   131  LEU131      0.0270
     83  CG        -1.4310   19.6540  -17.5260 C.3   131  LEU131      0.0019
     84  CD1       -1.4440   20.3510  -18.8980 C.3   131  LEU131      0.0001
     85  CD2       -0.2920   18.6430  -17.3920 C.3   131  LEU131      0.0001
     86  N         -0.8780   12.5000  -17.5450 N.3   143  THR143     -0.1218
     87  CA         0.3590   13.2050  -17.3490 C.3   143  THR143      0.1862
     88  C          1.2190   12.2750  -16.5000 C.2   143  THR143      0.2287
     89  O          0.7940   11.8510  -15.4200 O.2   143  THR143     -0.2866
     90  CB         0.1210   14.5470  -16.6340 C.3   143  THR143      0.1770
     91  OG1       -0.8730   15.2850  -17.3670 O.3   143  THR143     -0.2211
     92  CG2        1.4170   15.3500  -16.5670 C.3   143  THR143      0.0375
     93  N          2.7210   21.5900  -10.7680 N.3   177  PHE177     -0.1241
     94  CA         4.0180   20.9880  -10.4610 C.3   177  PHE177      0.1605
     95  C          5.1740   21.9530  -10.7050 C.2   177  PHE177      0.2264
     96  O          5.1290   22.8210  -11.6130 O.2   177  PHE177     -0.2867
     97  CB         4.2220   19.6890  -11.2590 C.3   177  PHE177      0.0534
     98  CG         4.4120   19.9240  -12.7300 C.ar  177  PHE177     -0.0203
     99  CD1        5.6930   20.1330  -13.2560 C.ar  177  PHE177     -0.0042
    100  CD2        3.3080   19.9460  -13.5850 C.ar  177  PHE177     -0.0042
    101  CE1        5.8530   20.3850  -14.6170 C.ar  177  PHE177     -0.0003
    102  CE2        3.4640   20.1620  -14.9430 C.ar  177  PHE177     -0.0003
    103  CZ         4.7500   20.3750  -15.4550 C.ar  177  PHE177     -0.0000
    104  N          8.3280   15.4690  -17.1930 N.3   192  HIS192     -0.1226
    105  CA         6.9190   15.0810  -17.3020 C.3   192  HIS192      0.1752
    106  C          6.4700   15.0400  -18.7510 C.2   192  HIS192      0.2597
    107  O          7.0050   15.7610  -19.6220 O.2   192  HIS192     -0.2718
    108  CB         6.0510   16.0900  -16.5120 C.3   192  HIS192      0.0759
    109  CG         6.1730   17.4640  -17.0650 C.ar  192  HIS192      0.0818
    110  ND1        7.3180   18.2170  -16.9160 N.ar  192  HIS192     -0.2268
    111  CD2        5.3760   18.1460  -17.9170 C.ar  192  HIS192      0.1154
    112  CE1        7.1910   19.3390  -17.6050 C.ar  192  HIS192      0.1986
    113  NE2        6.0310   19.3080  -18.2380 N.ar  192  HIS192     -0.2212
    114  N          5.4660   14.2070  -19.0120 N.am  193  GLY193     -0.1942
    115  CA         4.9560   14.0200  -20.3830 C.3   193  GLY193      0.2014
    116  C          3.4490   13.8100  -20.3750 C.2   193  GLY193      0.2639
    117  O          2.8070   13.8310  -19.3070 O.2   193  GLY193     -0.2714
    118  N          2.8900   13.6570  -21.5710 N.am  194  SER194     -0.1949
    119  CA         1.4940   13.2860  -21.7660 C.3   194  SER194      0.1924
    120  C          1.5250   11.9420  -22.4980 C.2   194  SER194      0.2314
    121  O          2.0130   11.8320  -23.6330 O.2   194  SER194     -0.2863
    122  CB         0.7530   14.3450  -22.5910 C.3   194  SER194      0.2116
    123  OG        -0.6180   14.0160  -22.7530 O.3   194  SER194     -0.2180
    124  N         -8.3730   14.4880  -25.4100 N.3   202  LYS202     -0.1245
    125  CA        -7.7570   15.1900  -24.2860 C.3   202  LYS202      0.1561
    126  C         -7.5590   16.6310  -24.6780 C.2   202  LYS202      0.2260
    127  O         -6.7860   16.9100  -25.5860 O.2   202  LYS202     -0.2867
    128  CB        -6.3930   14.5950  -23.9440 C.3   202  LYS202      0.0271
    129  CG        -5.7220   15.2950  -22.7320 C.3   202  LYS202      0.0035
    130  CD        -4.4080   14.6610  -22.3770 C.3   202  LYS202      0.0206
    131  CE        -3.6870   15.4920  -21.3140 C.3   202  LYS202      0.1093
    132  NZ        -2.4250   14.7940  -20.8770 N.3   202  LYS202     -0.1314
    133  N         -6.3110   20.1570  -22.9570 N.3   204  SER204     -0.1217
    134  CA        -5.6330   20.7090  -21.7800 C.3   204  SER204      0.1889
    135  C         -5.2350   22.1530  -22.0210 C.2   204  SER204      0.2288
    136  O         -5.0800   22.5710  -23.1520 O.2   204  SER204     -0.2866
    137  CB        -4.4050   19.8760  -21.4020 C.3   204  SER204      0.2089
    138  OG        -3.4960   19.7810  -22.4860 O.3   204  SER204     -0.2183
    139  N         -2.2490   24.8210  -20.5380 N.3   206  THR206     -0.1218
    140  CA        -1.0430   24.9670  -19.7300 C.3   206  THR206      0.1862
    141  C         -0.7660   26.4350  -19.4310 C.2   206  THR206      0.2287
    142  O         -0.8710   27.2990  -20.3180 O.2   206  THR206     -0.2866
    143  CB         0.1940   24.3540  -20.4300 C.3   206  THR206      0.1770
    144  OG1       -0.0440   22.9660  -20.7210 O.3   206  THR206     -0.2211
    145  CG2        1.4410   24.4760  -19.5580 C.3   206  THR206      0.0375
    146  N          2.3930   28.4240  -17.9250 N.3   208  TRP208     -0.1241
    147  CA         3.7990   28.4390  -17.5540 C.3   208  TRP208      0.1605
    148  C          4.1120   29.7260  -16.7770 C.2   208  TRP208      0.2264
    149  O          3.8130   30.8380  -17.2410 O.2   208  TRP208     -0.2867
    150  CB         4.6680   28.3250  -18.8130 C.3   208  TRP208      0.0550
    151  CG         4.6000   26.9550  -19.5130 C.ar  208  TRP208      0.0003
    152  CD1        4.8420   25.7140  -18.9430 C.ar  208  TRP208      0.0946
    153  CD2        4.3190   26.7010  -20.9010 C.ar  208  TRP208      0.0152
    154  NE1        4.7240   24.7300  -19.8890 N.ar  208  TRP208     -0.2442
    155  CE2        4.4170   25.2980  -21.0980 C.ar  208  TRP208      0.0810
    156  CE3        3.9940   27.5210  -21.9980 C.ar  208  TRP208      0.0012
    157  CZ2        4.1800   24.6940  -22.3420 C.ar  208  TRP208      0.0191
    158  CZ3        3.7660   26.9150  -23.2420 C.ar  208  TRP208      0.0001
    159  CH2        3.8510   25.5140  -23.3890 C.ar  208  TRP208      0.0015
@<TRIPOS>BOND
     1     4     3    2
     2     3     2    1
     3    11     9    1
     4     1     2    1
     5     2     5    1
     6     8     9    2
     7     8     7    1
     8     9    10    1
     9     5     6    1
    10    31    30    1
    11    31    32    2
    12    30    29    1
    13    30    33    1
    14     6     7    1
    15    19    18    2
    16    33    34    1
    17    28    26    1
    18    23    22    1
    19    23    24    2
    20    22    25    1
    21    22    21    1
    22    36    34   ar
    23    36    38   ar
    24    34    35   ar
    25    18    20   am
    26    18    17    1
    27    25    26    1
    28    38    39   ar
    29    41    42    1
    30   127   126    2
    31    26    27    1
    32    42    43    1
    33    42    45    1
    34    49    47   ar
    35    49    51   ar
    36   124   125    1
    37    35    37   ar
    38    47    46   ar
    39    52    51    1
    40    17    16    1
    41    51    50   ar
    42    39    37   ar
    43    39    40    1
    44    46    45    1
    45    46    48   ar
    46    43    44    2
    47   126   125    1
    48    50    48   ar
    49   125   128    1
    50    14    13    1
    51    14    15    2
    52    13    16    1
    53    13    12    1
    54   128   129    1
    55   121   120    2
    56   159   158   ar
    57   159   157   ar
    58   158   156   ar
    59   136   135    2
    60   133   134    1
    61   123   122    1
    62   129   130    1
    63   122   119    1
    64   120   119    1
    65   138   137    1
    66   130   131    1
    67    59    58   ar
    68    59    61   ar
    69   157   155   ar
    70    57    58    1
    71    57    54    1
    72    58    60   ar
    73    61    62   ar
    74   135   134    1
    75   156   153   ar
    76   134   137    1
    77   119   118    1
    78   118   116   am
    79    62    60   ar
    80   131   132    1
    81    54    53    1
    82    54    55    1
    83   155   153   ar
    84   155   154   ar
    85   153   151   ar
    86   144   143    1
    87   139   140    1
    88   143   140    1
    89   143   145    1
    90   115   116    1
    91   115   114    1
    92   116   117    2
    93   142   141    2
    94   154   152   ar
    95    55    56    2
    96   140   141    1
    97   107   106    2
    98    69    68   ar
    99   151   152   ar
   100   151   150    1
   101   114   106   am
   102    84    83    1
   103   150   147    1
   104   106   105    1
   105    64    63    1
   106    64    65    1
   107    64    67    1
   108    68    67    1
   109    68    70   ar
   110    65    66    2
   111   113   111   ar
   112   113   112   ar
   113   146   147    1
   114   111   109   ar
   115   112   110   ar
   116   147   148    1
   117    86    87    1
   118    83    85    1
   119    83    82    1
   120    91    90    1
   121    87    90    1
   122    87    88    1
   123   105   104    1
   124   105   108    1
   125   149   148    2
   126   109   110   ar
   127   109   108    1
   128    90    92    1
   129    88    89    2
   130    82    79    1
   131    77    75    1
   132    79    80    1
   133    79    78    1
   134    80    81    2
   135    76    75    1
   136   103   102   ar
   137   103   101   ar
   138    75    72    1
   139   102   100   ar
   140   101    99   ar
   141    72    73    1
   142    72    71    1
   143    73    74    2
   144   100    98   ar
   145    99    98   ar
   146    98    97    1
   147    96    95    2
   148    97    94    1
   149    93    94    1
   150    95    94    1
