@<TRIPOS>MOLECULE
tmp/2jihB00.pdb
 159 154 0 0 0
SMALL
GASTEIGER

@<TRIPOS>ATOM
      1  N         45.7320   24.2090   38.2730 N.3   111  THR111     -0.1218
      2  CA        45.4680   22.8470   37.8080 C.3   111  THR111      0.1862
      3  C         44.2770   22.7110   36.8660 C.2   111  THR111      0.2287
      4  O         43.4080   23.5730   36.7830 O.2   111  THR111     -0.2866
      5  CB        45.2570   21.8680   38.9850 C.3   111  THR111      0.1770
      6  OG1       45.1670   20.5390   38.4700 O.3   111  THR111     -0.2211
      7  CG2       43.9840   22.1830   39.7820 C.3   111  THR111      0.0375
      8  N         43.2880   19.2470   36.8090 N.3   113  ASP113     -0.1225
      9  CA        43.0610   17.8830   37.2910 C.3   113  ASP113      0.1805
     10  C         41.7760   17.7860   38.1580 C.2   113  ASP113      0.2598
     11  O         41.4090   16.7010   38.6350 O.2   113  ASP113     -0.2718
     12  CB        44.2530   17.4360   38.1560 C.3   113  ASP113      0.1424
     13  CG        45.6100   17.8560   37.5890 C.2   113  ASP113      0.3668
     14  OD1       45.7360   18.0220   36.3570 O.co2 113  ASP113     -0.2456
     15  OD2       46.5470   18.0210   38.4030 O.co2 113  ASP113     -0.2456
     16  N         41.1180   18.9270   38.3630 N.am  114  THR114     -0.1939
     17  CA        39.9790   19.0650   39.2730 C.3   114  THR114      0.2028
     18  C         38.7890   18.1760   38.8870 C.2   114  THR114      0.2642
     19  O         38.3520   18.1500   37.7300 O.2   114  THR114     -0.2714
     20  CB        39.5220   20.5240   39.3010 C.3   114  THR114      0.1808
     21  OG1       40.6580   21.3470   39.5570 O.3   114  THR114     -0.2208
     22  CG2       38.4770   20.7630   40.3610 C.3   114  THR114      0.0379
     23  N         38.2500   17.4710   39.8730 N.am  115  LEU115     -0.1963
     24  CA        37.1930   16.4960   39.6270 C.3   115  LEU115      0.1728
     25  C         35.7950   17.0200   39.9090 C.2   115  LEU115      0.2617
     26  O         34.8440   16.5040   39.3710 O.2   115  LEU115     -0.2715
     27  CB        37.4640   15.2370   40.4410 C.3   115  LEU115      0.0311
     28  CG        38.7880   14.5570   40.0940 C.3   115  LEU115      0.0022
     29  CD1       38.9520   13.3080   40.9480 C.3   115  LEU115      0.0001
     30  CD2       38.8680   14.2240   38.5900 C.3   115  LEU115      0.0001
     31  N         35.6620   18.0240   40.7690 N.am  116  GLY116     -0.1940
     32  CA        34.3350   18.5470   41.1230 C.3   116  GLY116      0.2014
     33  C         34.3890   19.7840   41.9900 C.2   116  GLY116      0.2639
     34  O         35.4480   20.1310   42.4860 O.2   116  GLY116     -0.2714
     35  N         33.2390   20.4470   42.1660 N.am  117  MET117     -0.1963
     36  CA        33.1370   21.6570   42.9830 C.3   117  MET117      0.1736
     37  C         31.7600   21.8810   43.6140 C.2   117  MET117      0.2616
     38  O         30.7490   21.4560   43.0970 O.2   117  MET117     -0.2715
     39  CB        33.5280   22.8790   42.1550 C.3   117  MET117      0.0427
     40  CG        33.7220   24.1160   42.9840 C.3   117  MET117      0.0599
     41  SD        34.7150   25.3390   42.1460 S.3   117  MET117     -0.1393
     42  CE        36.3310   24.6110   42.3830 C.3   117  MET117      0.0692
     43  N         31.7600   22.5690   44.7520 N.am  118  ALA118     -0.1977
     44  CA        30.5820   22.7780   45.5940 C.3   118  ALA118      0.1597
     45  C         30.9860   23.7800   46.6510 C.2   118  ALA118      0.2287
     46  O         32.0910   23.6760   47.1930 O.2   118  ALA118     -0.2864
     47  CB        30.1750   21.4850   46.2750 C.3   118  ALA118      0.0319
     48  N         32.1230    9.0180   43.7280 N.3   142  PHE142     -0.1227
     49  CA        32.7800    9.4070   44.9690 C.3   142  PHE142      0.1736
     50  C         32.8770   10.9250   45.0510 C.2   142  PHE142      0.2596
     51  O         32.6040   11.5090   46.1060 O.2   142  PHE142     -0.2718
     52  CB        34.1550    8.7540   45.0780 C.3   142  PHE142      0.0547
     53  CG        34.0850    7.2900   45.4300 C.ar  142  PHE142     -0.0202
     54  CD1       34.0110    6.3260   44.4410 C.ar  142  PHE142     -0.0042
     55  CD2       34.0540    6.8850   46.7500 C.ar  142  PHE142     -0.0042
     56  CE1       33.9250    4.9880   44.7490 C.ar  142  PHE142     -0.0003
     57  CE2       33.9730    5.5160   47.0730 C.ar  142  PHE142     -0.0003
     58  CZ        33.8950    4.5790   46.0650 C.ar  142  PHE142     -0.0000
     59  N         33.2390   11.5390   43.9250 N.am  143  THR143     -0.1953
     60  CA        33.2950   12.9910   43.7750 C.3   143  THR143      0.1897
     61  C         31.9890   13.6110   44.2460 C.2   143  THR143      0.2313
     62  O         31.9890   14.4910   45.1020 O.2   143  THR143     -0.2863
     63  CB        33.5620   13.3790   42.2950 C.3   143  THR143      0.1794
     64  OG1       34.7550   12.7420   41.8410 O.3   143  THR143     -0.2208
     65  CG2       33.7430   14.8690   42.1320 C.3   143  THR143      0.0378
     66  N         31.7150   13.6150   47.8400 N.3   146  HIS146     -0.1226
     67  CA        32.6890   14.5490   48.4340 C.3   146  HIS146      0.1752
     68  C         32.1730   15.9850   48.3730 C.2   146  HIS146      0.2595
     69  O         32.1950   16.7140   49.3660 O.2   146  HIS146     -0.2718
     70  CB        34.0100   14.4550   47.6590 C.3   146  HIS146      0.0759
     71  CG        35.0190   15.4820   48.0390 C.ar  146  HIS146      0.0818
     72  ND1       35.9940   15.2370   48.9730 N.ar  146  HIS146     -0.2268
     73  CD2       35.2430   16.7410   47.5710 C.ar  146  HIS146      0.1154
     74  CE1       36.7650   16.3100   49.0860 C.ar  146  HIS146      0.1986
     75  NE2       36.3320   17.2360   48.2470 N.ar  146  HIS146     -0.2212
     76  N         31.7070   16.3680   47.1880 N.am  147  GLU147     -0.1979
     77  CA        31.1020   17.6700   46.9900 C.3   147  GLU147      0.1602
     78  C         29.8570   17.8250   47.8710 C.2   147  GLU147      0.2287
     79  O         29.5890   18.9030   48.3960 O.2   147  GLU147     -0.2864
     80  CB        30.7540   17.8740   45.5160 C.3   147  GLU147      0.0415
     81  CG        31.9190   17.6920   44.5010 C.3   147  GLU147      0.1163
     82  CD        33.2360   18.3530   44.9090 C.2   147  GLU147      0.3649
     83  OE1       33.2440   19.3230   45.6920 O.co2 147  GLU147     -0.2457
     84  OE2       34.2790   17.9070   44.4030 O.co2 147  GLU147     -0.2457
     85  N         30.8570   18.9470   51.3370 N.3   150  HIS150     -0.1241
     86  CA        31.0330   20.3940   51.3860 C.3   150  HIS150      0.1621
     87  C         29.6830   21.0860   51.5780 C.2   150  HIS150      0.2264
     88  O         29.5080   21.8900   52.4970 O.2   150  HIS150     -0.2867
     89  CB        31.7340   20.9160   50.1070 C.3   150  HIS150      0.0745
     90  CG        33.1960   20.5810   50.0280 C.ar  150  HIS150      0.0817
     91  ND1       34.0360   20.6120   51.1250 N.ar  150  HIS150     -0.2268
     92  CD2       33.9750   20.2440   48.9710 C.ar  150  HIS150      0.1154
     93  CE1       35.2640   20.2960   50.7470 C.ar  150  HIS150      0.1986
     94  NE2       35.2500   20.0510   49.4450 N.ar  150  HIS150     -0.2212
     95  N         37.7440   19.8540   54.1820 N.3   156  HIS156     -0.1241
     96  CA        38.7110   18.8100   53.8870 C.3   156  HIS156      0.1621
     97  C         39.3500   18.2960   55.1670 C.2   156  HIS156      0.2264
     98  O         39.4820   19.0430   56.1440 O.2   156  HIS156     -0.2867
     99  CB        39.8210   19.3490   53.0020 C.3   156  HIS156      0.0745
    100  CG        39.4030   19.6120   51.5890 C.ar  156  HIS156      0.0817
    101  ND1       39.9300   20.6420   50.8410 N.ar  156  HIS156     -0.2268
    102  CD2       38.5210   18.9720   50.7850 C.ar  156  HIS156      0.1154
    103  CE1       39.3990   20.6160   49.6320 C.ar  156  HIS156      0.1986
    104  NE2       38.5340   19.6190   49.5730 N.ar  156  HIS156     -0.2212
    105  N         36.5700   10.3950   53.0800 N.3   171  MET171     -0.1245
    106  CA        35.8530   11.0420   51.9660 C.3   171  MET171      0.1570
    107  C         36.2410   12.4880   51.6880 C.2   171  MET171      0.2261
    108  O         36.1620   12.9420   50.5360 O.2   171  MET171     -0.2867
    109  CB        34.3360   10.9560   52.1920 C.3   171  MET171      0.0387
    110  CG        33.7640    9.5270   52.0620 C.3   171  MET171      0.0595
    111  SD        33.9320    8.8270   50.3930 S.3   171  MET171     -0.1393
    112  CE        33.6780   10.2140   49.3080 C.3   171  MET171      0.0692
    113  N         39.1760   14.0430   52.1850 N.3   173  ALA173     -0.1231
    114  CA        40.5380   14.3140   51.7260 C.3   173  ALA173      0.1694
    115  C         40.5080   15.2400   50.5120 C.2   173  ALA173      0.2593
    116  O         39.6800   15.0780   49.6240 O.2   173  ALA173     -0.2718
    117  CB        41.2250   13.0280   51.3740 C.3   173  ALA173      0.0304
    118  N         41.3990   16.2110   50.4750 N.am  174  SER174     -0.1938
    119  CA        41.4990   17.1090   49.3260 C.3   174  SER174      0.2055
    120  C         42.0650   16.3770   48.1060 C.2   174  SER174      0.2643
    121  O         41.7760   16.7490   46.9530 O.2   174  SER174     -0.2714
    122  CB        42.3940   18.3080   49.6580 C.3   174  SER174      0.2130
    123  OG        43.7240   17.8840   49.9140 O.3   174  SER174     -0.2179
    124  N         42.8780   15.3500   48.3690 N.am  175  MET175     -0.1962
    125  CA        43.5300   14.5740   47.3170 C.3   175  MET175      0.1736
    126  C         42.9340   13.1810   47.3450 C.2   175  MET175      0.2616
    127  O         42.8300   12.5770   48.4000 O.2   175  MET175     -0.2715
    128  CB        45.0560   14.4880   47.5330 C.3   175  MET175      0.0427
    129  CG        45.6880   15.6780   48.2710 C.3   175  MET175      0.0599
    130  SD        47.4770   15.8780   47.9600 S.3   175  MET175     -0.1393
    131  CE        48.0650   16.6810   49.4650 C.3   175  MET175      0.0692
    132  N         42.5490   12.6550   46.1910 N.am  176  LEU176     -0.1977
    133  CA        42.0620   11.2860   46.1730 C.3   176  LEU176      0.1596
    134  C         43.1780   10.3210   46.5850 C.2   176  LEU176      0.2287
    135  O         44.3450   10.4740   46.2070 O.2   176  LEU176     -0.2864
    136  CB        41.5110   10.8880   44.8220 C.3   176  LEU176      0.0297
    137  CG        40.6420    9.6420   44.9620 C.3   176  LEU176      0.0022
    138  CD1       39.1880   10.0580   45.1950 C.3   176  LEU176      0.0001
    139  CD2       40.8150    8.7100   43.7530 C.3   176  LEU176      0.0001
    140  N         44.0590    5.9250   35.4450 N.3   258  LYS258     -0.1245
    141  CA        43.9140    7.0230   36.4080 C.3   258  LYS258      0.1561
    142  C         44.2800    6.5890   37.8250 C.2   258  LYS258      0.2260
    143  O         44.2580    7.4130   38.7160 O.2   258  LYS258     -0.2867
    144  CB        42.4620    7.5230   36.4500 C.3   258  LYS258      0.0271
    145  CG        41.9330    8.0840   35.1580 C.3   258  LYS258      0.0035
    146  CD        42.6970    9.3140   34.7190 C.3   258  LYS258      0.0206
    147  CE        42.0010    9.9830   33.5420 C.3   258  LYS258      0.1093
    148  NZ        42.6110   11.2960   33.2240 N.3   258  LYS258     -0.1314
    149  N         42.4610    4.4460   39.5760 N.3   260  PHE260     -0.1241
    150  CA        41.2030    4.1670   40.2800 C.3   260  PHE260      0.1605
    151  C         40.9910    2.6600   40.2890 C.2   260  PHE260      0.2264
    152  O         41.3130    1.9750   39.3150 O.2   260  PHE260     -0.2867
    153  CB        39.9820    4.7670   39.5750 C.3   260  PHE260      0.0534
    154  CG        40.0740    6.2590   39.2450 C.ar  260  PHE260     -0.0203
    155  CD1       40.7740    7.1560   40.0510 C.ar  260  PHE260     -0.0042
    156  CD2       39.3730    6.7610   38.1370 C.ar  260  PHE260     -0.0042
    157  CE1       40.8090    8.5420   39.7240 C.ar  260  PHE260     -0.0003
    158  CE2       39.4000    8.1310   37.8100 C.ar  260  PHE260     -0.0003
    159  CZ        40.1250    9.0150   38.6020 C.ar  260  PHE260     -0.0000
@<TRIPOS>BOND
     1   148   147    1
     2   147   146    1
     3   146   145    1
     4   145   144    1
     5   140   141    1
     6    14    13   ar
     7   141   144    1
     8   141   142    1
     9     4     3    2
    10     8     9    1
    11     3     2    1
    12     9    12    1
    13     9    10    1
    14    13    12    1
    15    13    15   ar
    16    19    18    2
    17     2     1    1
    18     2     5    1
    19   158   156   ar
    20   158   159   ar
    21   142   143    2
    22   156   154   ar
    23    10    16   am
    24    10    11    2
    25    16    17    1
    26     6     5    1
    27    30    28    1
    28   159   157   ar
    29    18    17    1
    30    18    23   am
    31     5     7    1
    32   154   153    1
    33   154   155   ar
    34    17    20    1
    35    20    21    1
    36    20    22    1
    37   152   151    2
    38    26    25    2
    39   153   150    1
    40   149   150    1
    41    24    23    1
    42    24    25    1
    43    24    27    1
    44   157   155   ar
    45    25    31   am
    46    28    27    1
    47    28    29    1
    48   150   151    1
    49    31    32    1
    50    32    33    1
    51    64    63    1
    52    33    35   am
    53    33    34    2
    54    65    63    1
    55    41    42    1
    56    41    40    1
    57    39    36    1
    58    39    40    1
    59    35    36    1
    60    63    60    1
    61    36    37    1
    62    38    37    2
    63    37    43   am
    64    48    49    1
    65   139   137    1
    66    60    59    1
    67    60    61    1
    68    59    50   am
    69    61    62    2
    70    84    82   ar
    71    54    56   ar
    72    54    53   ar
    73    81    82    1
    74    81    80    1
    75    56    58   ar
    76    43    44    1
    77   136   137    1
    78   136   133    1
    79    82    83   ar
    80   137   138    1
    81    49    50    1
    82    49    52    1
    83    50    51    2
    84    52    53    1
    85    53    55   ar
    86    80    77    1
    87    44    47    1
    88    44    45    1
    89    58    57   ar
    90   133   132    1
    91   133   134    1
    92   132   126   am
    93   135   134    2
    94    45    46    2
    95    55    57   ar
    96   121   120    2
    97    77    76    1
    98    77    78    1
    99    76    68   am
   100   125   126    1
   101   125   128    1
   102   125   124    1
   103   126   127    2
   104   128   129    1
   105    73    71   ar
   106    73    75   ar
   107    70    71    1
   108    70    67    1
   109    66    67    1
   110    78    79    2
   111   130   129    1
   112   130   131    1
   113    71    72   ar
   114   120   124   am
   115   120   119    1
   116    75    74   ar
   117    68    67    1
   118    68    69    2
   119    92    94   ar
   120    92    90   ar
   121    72    74   ar
   122   112   111    1
   123   119   122    1
   124   119   118    1
   125    94    93   ar
   126   104   103   ar
   127   104   102   ar
   128   116   115    2
   129   103   101   ar
   130   122   123    1
   131    90    89    1
   132    90    91   ar
   133    89    86    1
   134   111   110    1
   135   118   115   am
   136   115   114    1
   137   108   107    2
   138    93    91   ar
   139   102   100   ar
   140   101   100   ar
   141    85    86    1
   142   117   114    1
   143    86    87    1
   144    87    88    2
   145   100    99    1
   146   107   106    1
   147   114   113    1
   148   106   109    1
   149   106   105    1
   150   110   109    1
   151    99    96    1
   152    96    95    1
   153    96    97    1
   154    97    98    2
