@<TRIPOS>MOLECULE
tmp/2jisB00.pdb
 131 121 0 0 0
SMALL
GASTEIGER

@<TRIPOS>ATOM
      1  N          5.1900  101.1150   63.7180 N.3    87  LEU87      -0.1245
      2  CA         5.3580   99.6680   63.9220 C.3    87  LEU87       0.1561
      3  C          6.5310   99.1090   63.1080 C.2    87  LEU87       0.2260
      4  O          6.7090   97.8880   62.9930 O.2    87  LEU87      -0.2867
      5  CB         4.0630   98.9290   63.5860 C.3    87  LEU87       0.0270
      6  CG         2.8350   99.3360   64.4010 C.3    87  LEU87       0.0019
      7  CD1        1.5980   98.5260   63.9950 C.3    87  LEU87       0.0001
      8  CD2        3.0400   99.2380   65.8910 C.3    87  LEU87       0.0001
      9  N          0.8760   96.2300   50.8570 N.3   145  GLY145     -0.1210
     10  CA         0.3890   96.6120   52.1780 C.3   145  GLY145      0.1956
     11  C         -0.5680   95.5980   52.7640 C.2   145  GLY145      0.2612
     12  O         -1.3060   94.9190   52.0380 O.2   145  GLY145     -0.2717
     13  N         -0.5910   95.5120   54.0880 N.am  146  GLY146     -0.1942
     14  CA        -1.5240   94.6470   54.7850 C.3   146  GLY146      0.2014
     15  C         -2.9790   95.0160   54.6380 C.2   146  GLY146      0.2639
     16  O         -3.8510   94.1570   54.7000 O.2   146  GLY146     -0.2714
     17  N         -3.2520   96.3040   54.4520 N.am  147  SER147     -0.1949
     18  CA        -4.6120   96.7500   54.1840 C.3   147  SER147      0.1924
     19  C         -5.1490   96.0440   52.9360 C.2   147  SER147      0.2314
     20  O         -6.2770   95.5410   52.9200 O.2   147  SER147     -0.2863
     21  CB        -4.6270   98.2650   53.9700 C.3   147  SER147      0.2116
     22  OG        -4.2300   98.9580   55.1380 O.3   147  SER147     -0.2180
     23  N         -5.7680   92.3320   53.5600 N.3   150  ASN150     -0.1240
     24  CA        -7.0390   92.1250   54.2100 C.3   150  ASN150      0.1653
     25  C         -8.1700   92.1500   53.1860 C.2   150  ASN150      0.2266
     26  O         -9.1000   91.3370   53.2430 O.2   150  ASN150     -0.2867
     27  CB        -7.2810   93.2080   55.2780 C.3   150  ASN150      0.1155
     28  CG        -6.4240   93.0340   56.5410 C.2   150  ASN150      0.2627
     29  OD1       -5.8870   91.9600   56.8300 O.2   150  ASN150     -0.2716
     30  ND2       -6.3190   94.1190   57.3230 N.am  150  ASN150     -0.0877
     31  N         -9.6450   96.7770   66.0200 N.3   184  CYS184     -0.1235
     32  CA        -9.0250   96.7020   64.7110 C.3   184  CYS184      0.1677
     33  C        -10.1200   96.6930   63.6810 C.2   184  CYS184      0.2270
     34  O        -10.5590   95.6290   63.2450 O.2   184  CYS184     -0.2867
     35  CB        -8.1640   95.4510   64.6160 C.3   184  CYS184      0.0956
     36  SG        -7.1650   95.3800   63.1420 S.3   184  CYS184     -0.0801
     37  N         -8.7190   99.3370   58.3800 N.3   187  SER187     -0.1217
     38  CA        -8.6270   98.8070   57.0020 C.3   187  SER187      0.1889
     39  C         -9.7650   97.8750   56.6660 C.2   187  SER187      0.2288
     40  O        -10.1090   97.7400   55.4940 O.2   187  SER187     -0.2866
     41  CB        -7.2940   98.1200   56.6260 C.3   187  SER187      0.2089
     42  OG        -7.1050   96.8810   57.2860 O.3   187  SER187     -0.2183
     43  N         -7.6480   89.6070   65.1150 N.3   238  THR238     -0.1218
     44  CA        -6.4240   90.3930   65.0540 C.3   238  THR238      0.1862
     45  C         -5.4000   89.8450   66.0460 C.2   238  THR238      0.2287
     46  O         -5.6970   89.7350   67.2450 O.2   238  THR238     -0.2866
     47  CB        -6.7040   91.9000   65.3520 C.3   238  THR238      0.1770
     48  OG1       -7.7500   92.3880   64.4920 O.3   238  THR238     -0.2211
     49  CG2       -5.4540   92.7530   65.1630 C.3   238  THR238      0.0375
     50  N         -2.2500   90.9960   67.3740 N.3   240  GLY240     -0.1225
     51  CA        -1.3830   92.1470   67.5610 C.3   240  GLY240      0.1811
     52  C         -2.0550   93.4060   67.0720 C.2   240  GLY240      0.2280
     53  O         -1.8410   93.8410   65.9400 O.2   240  GLY240     -0.2866
     54  N         -2.8870   97.4450   66.7080 N.3   242  THR242     -0.1218
     55  CA        -1.9140   98.5050   66.4280 C.3   242  THR242      0.1862
     56  C         -1.5890   99.3750   67.6330 C.2   242  THR242      0.2287
     57  O         -0.4550   99.8080   67.7720 O.2   242  THR242     -0.2866
     58  CB        -2.3320   99.4110   65.2570 C.3   242  THR242      0.1770
     59  OG1       -3.5320  100.0980   65.5850 O.3   242  THR242     -0.2211
     60  CG2       -2.5270   98.5910   63.9760 C.3   242  THR242      0.0375
     61  N         -5.7100   88.8480   60.9510 N.3   267  ASP267     -0.1239
     62  CA        -4.8990   89.9990   60.6430 C.3   267  ASP267      0.1674
     63  C         -3.7430   90.0100   61.6270 C.2   267  ASP267      0.2266
     64  O         -3.8450   90.5590   62.7390 O.2   267  ASP267     -0.2867
     65  CB        -5.6970   91.3020   60.7470 C.3   267  ASP267      0.1410
     66  CG        -4.8780   92.5070   60.3610 C.2   267  ASP267      0.3668
     67  OD1       -3.6580   92.3490   60.1090 O.co2 267  ASP267     -0.2456
     68  OD2       -5.4510   93.6190   60.3020 O.co2 267  ASP267     -0.2456
     69  N         -0.7510   91.2810   60.7140 N.3   269  ALA269     -0.1231
     70  CA         0.2030   92.1670   60.0650 C.3   269  ALA269      0.1694
     71  C          1.3420   92.5060   61.0000 C.2   269  ALA269      0.2592
     72  O          2.5080   92.4310   60.6180 O.2   269  ALA269     -0.2718
     73  CB        -0.4960   93.4430   59.5790 C.3   269  ALA269      0.0304
     74  N          0.9750   92.8230   62.2340 N.am  270  TRP270     -0.1976
     75  CA         1.9250   93.2000   63.2790 C.3   270  TRP270      0.1640
     76  C          2.3800   91.9790   64.0880 C.2   270  TRP270      0.2290
     77  O          3.5640   91.7030   64.1560 O.2   270  TRP270     -0.2864
     78  CB         1.2430   94.2540   64.1590 C.3   270  TRP270      0.0576
     79  CG         1.9510   94.7690   65.3710 C.ar  270  TRP270      0.0006
     80  CD1        1.3580   95.0720   66.5580 C.ar  270  TRP270      0.0946
     81  CD2        3.3400   95.1030   65.5240 C.ar  270  TRP270      0.0152
     82  NE1        2.2780   95.5620   67.4470 N.ar  270  TRP270     -0.2442
     83  CE2        3.5010   95.6110   66.8330 C.ar  270  TRP270      0.0810
     84  CE3        4.4440   95.0700   64.6780 C.ar  270  TRP270      0.0012
     85  CZ2        4.7380   96.0380   67.3200 C.ar  270  TRP270      0.0191
     86  CZ3        5.6710   95.4980   65.1600 C.ar  270  TRP270      0.0001
     87  CH2        5.8080   95.9640   66.4750 C.ar  270  TRP270      0.0015
     88  N          2.9140   91.1530   58.0050 N.3   296  ASN296     -0.1240
     89  CA         3.8440   92.1480   57.4340 C.3   296  ASN296      0.1653
     90  C          5.2430   92.0260   58.0200 C.2   296  ASN296      0.2266
     91  O          5.5360   92.6060   59.0630 O.2   296  ASN296     -0.2867
     92  CB         3.4020   93.5980   57.7300 C.3   296  ASN296      0.1155
     93  CG         2.1680   94.0340   57.0030 C.2   296  ASN296      0.2627
     94  OD1        1.5200   93.2600   56.3180 O.2   296  ASN296     -0.2716
     95  ND2        1.7860   95.2870   57.2340 N.am  296  ASN296     -0.0877
     96  N          7.6600   93.6710   57.0310 N.3   298  HIS298     -0.1226
     97  CA         8.2190   95.0250   57.0990 C.3   298  HIS298      0.1752
     98  C          8.0020   95.7100   58.4420 C.2   298  HIS298      0.2595
     99  O          8.6040   96.7640   58.6950 O.2   298  HIS298     -0.2718
    100  CB         7.7650   95.9330   55.9420 C.3   298  HIS298      0.0759
    101  CG         6.3280   96.3550   55.9760 C.ar  298  HIS298      0.0818
    102  ND1        5.8180   97.2710   56.8720 N.ar  298  HIS298     -0.2268
    103  CD2        5.3110   96.0660   55.1270 C.ar  298  HIS298      0.1154
    104  CE1        4.5400   97.4740   56.6090 C.ar  298  HIS298      0.1986
    105  NE2        4.2110   96.7610   55.5520 N.ar  298  HIS298     -0.2212
    106  N          7.1620   95.1360   59.3080 N.am  299  LYS299     -0.1980
    107  CA         6.9840   95.6740   60.6510 C.3   299  LYS299      0.1596
    108  C          8.0420   95.0650   61.5620 C.2   299  LYS299      0.2287
    109  O          9.1870   95.4900   61.4950 O.2   299  LYS299     -0.2864
    110  CB         5.5520   95.4760   61.1260 C.3   299  LYS299      0.0298
    111  CG         4.6270   96.4670   60.4420 C.3   299  LYS299      0.0038
    112  CD         3.2140   96.3200   60.8960 C.3   299  LYS299      0.0206
    113  CE         2.4050   97.4570   60.3990 C.3   299  LYS299      0.1093
    114  NZ         1.0070   97.1980   60.6810 N.3   299  LYS299     -0.1314
    115  N          9.5990   98.6510   53.8720 N.3   305  LEU305     -0.1231
    116  CA         8.2790   98.8760   53.2760 C.3   305  LEU305      0.1693
    117  C          8.3270   98.6330   51.7750 C.2   305  LEU305      0.2591
    118  O          9.2800   99.0830   51.1370 O.2   305  LEU305     -0.2718
    119  CB         7.8240  100.3260   53.5090 C.3   305  LEU305      0.0284
    120  CG         7.1460  100.6810   54.8370 C.3   305  LEU305      0.0019
    121  CD1        8.0360  100.3900   56.0090 C.3   305  LEU305      0.0001
    122  CD2        5.8040  100.0170   54.9910 C.3   305  LEU305      0.0001
    123  N          7.3580   97.9400   51.1660 N.am  306  GLN306     -0.1979
    124  CA         6.3590   97.0840   51.8130 C.3   306  GLN306      0.1601
    125  C          6.7930   95.6250   51.7050 C.2   306  GLN306      0.2287
    126  O          7.4440   95.2020   50.7480 O.2   306  GLN306     -0.2864
    127  CB         4.9780   97.2860   51.1580 C.3   306  GLN306      0.0394
    128  CG         4.4440   98.6770   51.4640 C.3   306  GLN306      0.0908
    129  CD         3.1730   99.0220   50.7520 C.2   306  GLN306      0.2608
    130  OE1        2.2090   99.4720   51.3810 O.2   306  GLN306     -0.2717
    131  NE2        3.1540   98.8350   49.4440 N.am  306  GLN306     -0.0878
@<TRIPOS>BOND
     1   131   129   am
     2   126   125    2
     3   129   130    2
     4   129   128    1
     5     9    10    1
     6   118   117    2
     7   127   128    1
     8   127   124    1
     9   123   117   am
    10   123   124    1
    11   125   124    1
    12   117   116    1
    13    12    11    2
    14    10    11    1
    15    11    13   am
    16    20    19    2
    17    19    18    1
    18    25    26    2
    19    25    24    1
    20   116   119    1
    21   116   115    1
    22   119   120    1
    23    23    24    1
    24    21    18    1
    25    21    22    1
    26    13    14    1
    27    18    17    1
    28    24    27    1
    29    17    15   am
    30    15    16    2
    31    15    14    1
    32   120   122    1
    33   120   121    1
    34   103   105   ar
    35   103   101   ar
    36    27    28    1
    37    40    39    2
    38   105   104   ar
    39   100   101    1
    40   100    97    1
    41   101   102   ar
    42    94    93    2
    43    28    29    2
    44    28    30   am
    45   104   102   ar
    46    41    38    1
    47    41    42    1
    48    39    38    1
    49    38    37    1
    50    93    95   am
    51    93    92    1
    52    96    97    1
    53    97    98    1
    54    89    92    1
    55    89    88    1
    56    89    90    1
    57    90    91    2
    58    98    99    2
    59    98   106   am
    60   106   107    1
    61    73    70    1
    62    70    69    1
    63    70    71    1
    64    67    66   ar
    65    68    66   ar
    66    66    65    1
    67   113   114    1
    68   113   112    1
    69   111   112    1
    70   111   110    1
    71    72    71    2
    72    62    65    1
    73    62    61    1
    74    62    63    1
    75   107   110    1
    76   107   108    1
    77    71    74   am
    78   109   108    2
    79    63    64    2
    80    74    75    1
    81     4     3    2
    82     3     2    1
    83    36    35    1
    84    34    33    2
    85    75    76    1
    86    75    78    1
    87     5     2    1
    88     5     6    1
    89    33    32    1
    90     1     2    1
    91    60    58    1
    92     7     6    1
    93    76    77    2
    94    78    79    1
    95     6     8    1
    96    48    47    1
    97    35    32    1
    98    84    86   ar
    99    84    81   ar
   100    32    31    1
   101    44    43    1
   102    44    47    1
   103    44    45    1
   104    86    87   ar
   105    49    47    1
   106    58    59    1
   107    58    55    1
   108    79    81   ar
   109    79    80   ar
   110    81    83   ar
   111    53    52    2
   112    45    46    2
   113    55    54    1
   114    55    56    1
   115    87    85   ar
   116    80    82   ar
   117    83    85   ar
   118    83    82   ar
   119    52    51    1
   120    50    51    1
   121    56    57    2
