@<TRIPOS>MOLECULE
tmp/2jivA00.pdb
 215 206 0 0 0
SMALL
GASTEIGER

@<TRIPOS>ATOM
      1  N          2.7070   11.6540   18.5660 N.3    19  LEU19      -0.1231
      2  CA         1.8300   10.6030   19.0760 C.3    19  LEU19       0.1693
      3  C          2.3260   10.1490   20.4490 C.2    19  LEU19       0.2593
      4  O          1.6790   10.3900   21.4690 O.2    19  LEU19      -0.2718
      5  CB         1.8150    9.4210   18.1150 C.3    19  LEU19       0.0284
      6  CG         1.8480    9.7690   16.6230 C.3    19  LEU19       0.0019
      7  CD1        2.3050    8.5720   15.8160 C.3    19  LEU19       0.0001
      8  CD2        0.4870   10.2430   16.1500 C.3    19  LEU19       0.0001
      9  N          3.4840    9.5000   20.4640 N.am   20  GLY20      -0.1942
     10  CA         4.0520    9.0250   21.7100 C.3    20  GLY20       0.2014
     11  C          5.3730    9.7010   22.0120 C.2    20  GLY20       0.2639
     12  O          5.7170   10.7100   21.3880 O.2    20  GLY20      -0.2714
     13  N          6.1130    9.1490   22.9710 N.am   21  SER21      -0.1949
     14  CA         7.4070    9.7140   23.3550 C.3    21  SER21       0.1924
     15  C          8.1450    8.7820   24.3240 C.2    21  SER21       0.2314
     16  O          8.0800    7.5510   24.1950 O.2    21  SER21      -0.2863
     17  CB         7.2120   11.0790   24.0100 C.3    21  SER21       0.2116
     18  OG         6.1170   11.7810   23.4400 O.3    21  SER21      -0.2180
     19  N          8.0720   10.1010   18.3670 N.3    27  VAL27      -0.1245
     20  CA         7.3660    9.6230   17.1840 C.3    27  VAL27       0.1561
     21  C          6.2970   10.6150   16.7390 C.2    27  VAL27       0.2260
     22  O          5.6170   11.2230   17.5660 O.2    27  VAL27      -0.2867
     23  CB         6.7090    8.2530   17.4350 C.3    27  VAL27       0.0252
     24  CG1        6.4630    8.0460   18.9210 C.3    27  VAL27       0.0019
     25  CG2        5.4110    8.1360   16.6510 C.3    27  VAL27       0.0019
     26  N          4.5600    6.9680   10.6520 N.3    44  ALA44      -0.1231
     27  CA         5.0380    7.5140   11.9150 C.3    44  ALA44       0.1694
     28  C          6.4940    7.9570   11.7620 C.2    44  ALA44       0.2592
     29  O          6.9380    8.2990   10.6590 O.2    44  ALA44      -0.2718
     30  CB         4.9180    6.4890   13.0150 C.3    44  ALA44       0.0304
     31  N          7.2270    8.0160   12.8750 N.am   45  ILE45      -0.1966
     32  CA         8.6130    8.4720   12.8510 C.3    45  ILE45       0.1727
     33  C          9.2060    8.5890   14.2410 C.2    45  ILE45       0.2616
     34  O          8.6440    9.2050   15.1110 O.2    45  ILE45      -0.2715
     35  CB         8.7690    9.8510   12.1560 C.3    45  ILE45       0.0290
     36  CG1        8.2720    9.8020   10.7140 C.3    45  ILE45       0.0022
     37  CG2       10.2100   10.2570   12.1750 C.3    45  ILE45       0.0023
     38  CD1        9.0260    8.8850   10.0250 C.3    45  ILE45       0.0001
     39  N         10.3660    7.9850   14.4260 N.am   46  LYS46      -0.1977
     40  CA        11.0640    8.0060   15.7070 C.3    46  LYS46       0.1596
     41  C         12.4430    8.6540   15.5350 C.2    46  LYS46       0.2287
     42  O         13.3200    8.1040   14.8610 O.2    46  LYS46      -0.2864
     43  CB        11.2210    6.5810   16.2320 C.3    46  LYS46       0.0298
     44  CG        11.6090    6.5000   17.6900 C.3    46  LYS46       0.0038
     45  CD        10.8790    5.3530   18.3700 C.3    46  LYS46       0.0206
     46  CE        11.8200    4.5260   19.2350 C.3    46  LYS46       0.1093
     47  NZ        11.2210    3.2050   19.5740 N.3    46  LYS46      -0.1314
     48  N         15.9220   -5.6460   11.5950 N.3    66  MET66      -0.1245
     49  CA        14.5810   -5.2150   11.9280 C.3    66  MET66       0.1570
     50  C         13.5700   -5.3790   10.7820 C.2    66  MET66       0.2261
     51  O         12.3940   -5.1030   10.9180 O.2    66  MET66      -0.2867
     52  CB        14.6030   -3.7840   12.4800 C.3    66  MET66       0.0387
     53  CG        15.2800   -3.6930   13.8580 C.3    66  MET66       0.0595
     54  SD        14.7130   -2.2560   14.7930 S.3    66  MET66      -0.1393
     55  CE        15.4890   -0.9490   13.8480 C.3    66  MET66       0.0692
     56  N          5.8420   -6.0580   14.3800 N.3    75  CYS75      -0.1235
     57  CA         6.0370   -4.9860   13.4120 C.3    75  CYS75       0.1677
     58  C          7.4130   -5.0670   12.7450 C.2    75  CYS75       0.2270
     59  O          8.4240   -5.3390   13.4020 O.2    75  CYS75      -0.2867
     60  CB         5.8750   -3.6240   14.0810 C.3    75  CYS75       0.0956
     61  SG         4.2080   -2.9850   14.0200 S.3    75  CYS75      -0.0801
     62  N         10.3180   -3.1340   10.2090 N.3    77  LEU77      -0.1245
     63  CA        10.7600   -1.8040    9.8070 C.3    77  LEU77       0.1561
     64  C         10.5650   -1.5630    8.3080 C.2    77  LEU77       0.2260
     65  O         10.8690   -2.4130    7.4700 O.2    77  LEU77      -0.2867
     66  CB        12.2250   -1.5800   10.1800 C.3    77  LEU77       0.0270
     67  CG        12.6880   -0.1280   10.2090 C.3    77  LEU77       0.0019
     68  CD1       12.0610    0.5880   11.3980 C.3    77  LEU77       0.0001
     69  CD2       14.2050   -0.0530   10.2860 C.3    77  LEU77       0.0001
     70  N         13.2920    6.7060   12.1140 N.3    88  LEU88      -0.1231
     71  CA        12.6360    5.4230   11.8890 C.3    88  LEU88       0.1693
     72  C         11.1820    5.6080   11.4670 C.2    88  LEU88       0.2592
     73  O         10.3240    5.9360   12.2870 O.2    88  LEU88      -0.2718
     74  CB        12.7120    4.5550   13.1470 C.3    88  LEU88       0.0284
     75  CG        14.0240    3.7990   13.3690 C.3    88  LEU88       0.0019
     76  CD1       13.7780    2.5150   14.1470 C.3    88  LEU88       0.0001
     77  CD2       14.7070    3.5050   12.0430 C.3    88  LEU88       0.0001
     78  N         10.9130    5.3940   10.1830 N.am   89  ILE89      -0.1966
     79  CA         9.5630    5.5350    9.6490 C.3    89  ILE89       0.1727
     80  C          8.9250    4.1700    9.4140 C.2    89  ILE89       0.2616
     81  O          9.6210    3.1830    9.1750 O.2    89  ILE89      -0.2715
     82  CB         9.5580    6.3280    8.3290 C.3    89  ILE89       0.0290
     83  CG1        9.7840    5.3900    7.1420 C.3    89  ILE89       0.0022
     84  CG2       10.6170    7.4200    8.3600 C.3    89  ILE89       0.0023
     85  CD1        8.8460    4.2030    7.1150 C.3    89  ILE89       0.0001
     86  N          7.5990    4.1210    9.4830 N.am   90  MET90      -0.1963
     87  CA         6.8690    2.8750    9.2780 C.3    90  MET90       0.1736
     88  C          5.3800    3.1290    9.0690 C.2    90  MET90       0.2616
     89  O          4.9010    4.2500    9.2400 O.2    90  MET90      -0.2715
     90  CB         7.0800    1.9290   10.4620 C.3    90  MET90       0.0427
     91  CG         8.4570    1.2870   10.5050 C.3    90  MET90       0.0599
     92  SD         8.4920   -0.2180   11.4980 S.3    90  MET90      -0.1393
     93  CE         6.7430   -0.4650   11.7990 C.3    90  MET90       0.0692
     94  N          4.6540    2.0800    8.6980 N.am   91  GLN91      -0.1963
     95  CA         3.2220    2.1820    8.4650 C.3    91  GLN91       0.1733
     96  C          2.5080    2.7180    9.7050 C.2    91  GLN91       0.2616
     97  O          2.7330    2.2460   10.8180 O.2    91  GLN91      -0.2715
     98  CB         2.6560    0.8140    8.0970 C.3    91  GLN91       0.0408
     99  CG         1.7580    0.8430    6.8610 C.3    91  GLN91       0.0908
    100  CD         0.5710   -0.1160    6.9770 C.2    91  GLN91       0.2608
    101  OE1       -0.4460    0.0390    6.2860 O.2    91  GLN91      -0.2717
    102  NE2        0.6980   -1.1140    7.8540 N.am   91  GLN91      -0.0878
    103  N          1.6510    3.7090    9.5040 N.am   92  LEU92      -0.1963
    104  CA         0.9070    4.3110   10.6030 C.3    92  LEU92       0.1728
    105  C         -0.2970    3.4530   10.9920 C.2    92  LEU92       0.2616
    106  O         -1.1690    3.1610   10.1620 O.2    92  LEU92      -0.2715
    107  CB         0.4220    5.7110   10.2170 C.3    92  LEU92       0.0311
    108  CG         0.3430    6.7440   11.3400 C.3    92  LEU92       0.0022
    109  CD1       -0.5320    7.9120   10.9140 C.3    92  LEU92       0.0001
    110  CD2       -0.2030    6.0930   12.6030 C.3    92  LEU92       0.0001
    111  N         -0.3210    3.0020   12.2460 N.am   93  MET93      -0.1964
    112  CA        -1.4040    2.1730   12.7900 C.3    93  MET93       0.1722
    113  C         -2.3140    3.1710   13.4550 C.2    93  MET93       0.2458
    114  O         -2.0440    3.6170   14.5470 O.2    93  MET93      -0.2730
    115  CB        -0.8560    1.2200   13.8510 C.3    93  MET93       0.0427
    116  CG         0.4250    0.5290   13.4700 C.3    93  MET93       0.0599
    117  SD         0.1540   -1.0470   12.6890 S.3    93  MET93      -0.1393
    118  CE         1.6180   -1.1420   11.6990 C.3    93  MET93       0.0692
    119  N         -3.3860    3.5410   12.7910 N.am   94  PRO94      -0.2716
    120  CA        -4.2620    4.5970   13.3080 C.3    94  PRO94       0.1536
    121  C         -4.7560    4.3390   14.7330 C.2    94  PRO94       0.2599
    122  O         -4.9640    5.2930   15.4850 O.2    94  PRO94      -0.2715
    123  CB        -5.4350    4.6210   12.3130 C.3    94  PRO94       0.0310
    124  CG        -5.3370    3.3540   11.5470 C.3    94  PRO94       0.0237
    125  CD        -3.8910    2.9770   11.5280 C.3    94  PRO94       0.0939
    126  N         -4.8830    3.0700   15.1040 N.am   95  PHE95      -0.1960
    127  CA        -5.3150    2.7140   16.4470 C.3    95  PHE95       0.1771
    128  C         -4.2130    3.1030   17.4220 C.2    95  PHE95       0.2620
    129  O         -3.0320    3.0690   17.0800 O.2    95  PHE95      -0.2715
    130  CB        -5.5730    1.2090   16.5470 C.3    95  PHE95       0.0574
    131  CG        -6.7480    0.7400   15.7430 C.ar   95  PHE95      -0.0200
    132  CD1       -8.0090    0.6800   16.3050 C.ar   95  PHE95      -0.0042
    133  CD2       -6.5890    0.3490   14.4270 C.ar   95  PHE95      -0.0042
    134  CE1       -9.0880    0.2440   15.5670 C.ar   95  PHE95      -0.0003
    135  CE2       -7.6650   -0.0850   13.6870 C.ar   95  PHE95      -0.0003
    136  CZ        -8.9150   -0.1380   14.2590 C.ar   95  PHE95      -0.0000
    137  N         -4.5990    3.4710   18.6370 N.am   96  GLY96      -0.1940
    138  CA        -3.6340    3.8610   19.6460 C.3    96  GLY96       0.2014
    139  C         -2.6040    2.7800   19.9000 C.2    96  GLY96       0.2639
    140  O         -2.1530    2.1050   18.9740 O.2    96  GLY96      -0.2714
    141  N         -2.2320    2.6180   21.1650 N.am   97  CYS97      -0.1967
    142  CA        -1.2460    1.6070   21.5650 C.3    97  CYS97       0.1712
    143  C         -1.9180    0.6600   22.5530 C.2    97  CYS97       0.2296
    144  O         -2.6560    1.1400   23.4390 O.2    97  CYS97      -0.2864
    145  CB        -0.0780    2.3020   22.2610 C.3    97  CYS97       0.0983
    146  SG        -0.5000    3.9860   22.8330 S.3    97  CYS97      -0.0798
    147  N         -1.4140    0.0210   25.0980 N.3    99  LEU99      -0.1231
    148  CA        -1.5520    0.7540   26.3570 C.3    99  LEU99       0.1693
    149  C         -2.6950    1.7300   26.4320 C.2    99  LEU99       0.2592
    150  O         -3.7160    1.4400   27.0200 O.2    99  LEU99      -0.2718
    151  CB        -0.2550    1.4350   26.7730 C.3    99  LEU99       0.0284
    152  CG        -0.2250    2.1580   28.1110 C.3    99  LEU99       0.0019
    153  CD1       -0.2420    1.1670   29.2690 C.3    99  LEU99       0.0001
    154  CD2        1.0050    3.0570   28.2070 C.3    99  LEU99       0.0001
    155  N         -2.5160    2.9100   25.8680 N.am  100  ASP100     -0.1974
    156  CA        -3.5750    3.8860   25.9290 C.3   100  ASP100      0.1709
    157  C         -4.8410    3.2250   25.4510 C.2   100  ASP100      0.2293
    158  O         -5.7270    2.9690   26.2450 O.2   100  ASP100     -0.2864
    159  CB        -3.2400    5.1360   25.1280 C.3   100  ASP100      0.1436
    160  CG        -2.5850    6.2160   25.9730 C.2   100  ASP100      0.3671
    161  OD1       -2.7300    7.4040   25.6460 O.co2 100  ASP100     -0.2456
    162  OD2       -1.9170    5.8890   26.9670 O.co2 100  ASP100     -0.2456
    163  N          2.5890   -0.1960   26.1100 N.3   141  ARG141     -0.1245
    164  CA         2.9260    1.0250   25.3770 C.3   141  ARG141      0.1563
    165  C          3.8070    0.6920   24.1740 C.2   141  ARG141      0.2260
    166  O          3.9250    1.4810   23.2390 O.2   141  ARG141     -0.2867
    167  CB         3.6480    2.0120   26.2900 C.3   141  ARG141      0.0307
    168  CG         4.1220    1.4110   27.6090 C.3   141  ARG141      0.0489
    169  CD         5.4510    2.0090   28.0310 C.3   141  ARG141      0.2205
    170  NE         6.2730    1.0320   28.7400 N.pl3 141  ARG141     -0.0865
    171  CZ         7.5470    0.7880   28.4550 C.cat 141  ARG141      0.5346
    172  NH1        8.1380    1.4530   27.4670 N.pl3 141  ARG141      0.1354
    173  NH2        8.2270   -0.1140   29.1590 N.pl3 141  ARG141      0.1354
    174  N          1.5440   -2.1170   19.2340 N.3   144  LEU144     -0.1245
    175  CA         0.5700   -1.4380   18.3970 C.3   144  LEU144      0.1561
    176  C         -0.7020   -2.2360   18.1970 C.2   144  LEU144      0.2260
    177  O         -0.8040   -3.3850   18.6280 O.2   144  LEU144     -0.2867
    178  CB         1.2010   -1.1000   17.0480 C.3   144  LEU144      0.0270
    179  CG         2.2560    0.0030   17.0760 C.3   144  LEU144      0.0019
    180  CD1        2.5410    0.4230   18.5240 C.3   144  LEU144      0.0001
    181  CD2        3.5310   -0.4530   16.3890 C.3   144  LEU144      0.0001
    182  N          6.0680   -3.7140   18.7620 N.3   154  THR154     -0.1203
    183  CA         6.9750   -2.7130   18.2570 C.3   154  THR154      0.1994
    184  C          8.1270   -2.5610   19.2050 C.2   154  THR154      0.2618
    185  O          8.1900   -3.2140   20.2260 O.2   154  THR154     -0.2717
    186  CB         6.3120   -1.3540   18.1760 C.3   154  THR154      0.1784
    187  OG1        6.1310   -0.9910   16.8090 O.3   154  THR154     -0.2211
    188  CG2        7.1760   -0.3270   18.8240 C.3   154  THR154      0.0376
    189  N          9.0370   -1.6750   18.8540 N.am  155  ASP155     -0.1959
    190  CA        10.1960   -1.4060   19.6580 C.3   155  ASP155      0.1840
    191  C         10.8510   -2.6520   20.2110 C.2   155  ASP155      0.2622
    192  O         10.3190   -3.3320   21.0810 O.2   155  ASP155     -0.2715
    193  CB         9.8530   -0.4390   20.7680 C.3   155  ASP155      0.1450
    194  CG         9.2480    0.8400   20.2550 C.2   155  ASP155      0.3671
    195  OD1        9.7760    1.3920   19.2750 O.co2 155  ASP155     -0.2456
    196  OD2        8.2480    1.2980   20.8400 O.co2 155  ASP155     -0.2456
    197  N         12.0320   -2.9410   19.6890 N.am  156  PHE156     -0.1974
    198  CA        12.7840   -4.1120   20.1250 C.3   156  PHE156      0.1639
    199  C         14.0830   -4.1820   19.3470 C.2   156  PHE156      0.2290
    200  O         14.1300   -3.8630   18.1590 O.2   156  PHE156     -0.2864
    201  CB        11.9880   -5.3980   19.8930 C.3   156  PHE156      0.0560
    202  CG        11.6040   -5.6550   18.4540 C.ar  156  PHE156     -0.0200
    203  CD1       10.8500   -6.7710   18.1140 C.ar  156  PHE156     -0.0042
    204  CD2       11.9970   -4.7920   17.4400 C.ar  156  PHE156     -0.0042
    205  CE1       10.5040   -7.0100   16.7900 C.ar  156  PHE156     -0.0003
    206  CE2       11.6630   -5.0200   16.1230 C.ar  156  PHE156     -0.0003
    207  CZ        10.9160   -6.1260   15.7920 C.ar  156  PHE156     -0.0000
    208  N         16.3350   -2.2920   19.6650 N.3   158  LEU158     -0.1245
    209  CA        16.8350   -0.9340   19.5380 C.3   158  LEU158      0.1561
    210  C         18.1010   -0.6910   20.3290 C.2   158  LEU158      0.2260
    211  O         19.1630   -0.4760   19.7420 O.2   158  LEU158     -0.2867
    212  CB        15.7830    0.0640   20.0240 C.3   158  LEU158      0.0270
    213  CG        14.7180    0.4980   19.0190 C.3   158  LEU158      0.0019
    214  CD1       14.0120    1.7520   19.5590 C.3   158  LEU158      0.0001
    215  CD2       15.3850    0.7890   17.6660 C.3   158  LEU158      0.0001
@<TRIPOS>BOND
     1   101   100    2
     2    99   100    1
     3    99    98    1
     4   100   102   am
     5    85    83    1
     6    83    82    1
     7    65    64    2
     8    98    95    1
     9    64    63    1
    10    82    84    1
    11    82    79    1
    12    95    94    1
    13    95    96    1
    14    94    88   am
    15    88    89    2
    16    88    87    1
    17    81    80    2
    18    87    86    1
    19    87    90    1
    20    80    86   am
    21    80    79    1
    22   103    96   am
    23   103   104    1
    24    79    78    1
    25    96    97    2
    26    63    66    1
    27    63    62    1
    28    38    36    1
    29   106   105    2
    30    66    67    1
    31    78    72   am
    32    67    69    1
    33    67    68    1
    34   107   104    1
    35   107   108    1
    36    90    91    1
    37    91    92    1
    38   104   105    1
    39    26    27    1
    40    29    28    2
    41    36    35    1
    42    50    51    2
    43    50    49    1
    44   109   108    1
    45   105   111   am
    46   108   110    1
    47    72    71    1
    48    72    73    2
    49    92    93    1
    50   125   124    1
    51   125   119    1
    52   124   123    1
    53    48    49    1
    54   118   117    1
    55    28    27    1
    56    28    31   am
    57    71    70    1
    58    71    74    1
    59    27    30    1
    60    49    52    1
    61    77    75    1
    62    35    37    1
    63    35    32    1
    64   111   112    1
    65   123   120    1
    66    52    53    1
    67   117   116    1
    68    58    59    2
    69    58    57    1
    70   112   113    1
    71   112   115    1
    72   119   120    1
    73   119   113   am
    74    32    31    1
    75    32    33    1
    76    74    75    1
    77   120   121    1
    78    75    76    1
    79    57    60    1
    80    57    56    1
    81   113   114    2
    82   116   115    1
    83   135   136   ar
    84   135   133   ar
    85    55    54    1
    86    53    54    1
    87    61    60    1
    88    33    39   am
    89    33    34    2
    90   136   134   ar
    91    39    40    1
    92   133   131   ar
    93   121   126   am
    94   121   122    2
    95    42    41    2
    96   126   127    1
    97    41    40    1
    98   134   132   ar
    99    40    43    1
   100   131   132   ar
   101   131   130    1
   102   207   206   ar
   103   207   205   ar
   104     7     6    1
   105   206   204   ar
   106     8     6    1
   107    43    44    1
   108   181   179    1
   109   127   130    1
   110   127   128    1
   111     6     5    1
   112    25    23    1
   113    21    20    1
   114    21    22    2
   115   205   203   ar
   116   187   186    1
   117   178   179    1
   118   178   175    1
   119   179   180    1
   120   129   128    2
   121    20    23    1
   122    20    19    1
   123   128   137   am
   124    23    24    1
   125   204   202   ar
   126   215   213    1
   127    44    45    1
   128   203   202   ar
   129     5     2    1
   130   200   199    2
   131   186   183    1
   132   186   188    1
   133   176   175    1
   134   176   177    2
   135   183   182    1
   136   183   184    1
   137    45    46    1
   138   175   174    1
   139   202   201    1
   140     1     2    1
   141   137   138    1
   142   189   184   am
   143   189   190    1
   144   140   139    2
   145   213   214    1
   146   213   212    1
   147     2     3    1
   148   184   185    2
   149    46    47    1
   150   195   194   ar
   151   199   198    1
   152   209   208    1
   153   209   212    1
   154   209   210    1
   155   138   139    1
   156   190   191    1
   157   190   193    1
   158   197   198    1
   159   197   191   am
   160   211   210    2
   161   201   198    1
   162   139   141   am
   163   191   192    2
   164   194   193    1
   165   194   196   ar
   166     3     9   am
   167     3     4    2
   168     9    10    1
   169   141   142    1
   170    12    11    2
   171   142   145    1
   172   142   143    1
   173    10    11    1
   174    11    13   am
   175   145   146    1
   176   143   144    2
   177    13    14    1
   178   166   165    2
   179    14    17    1
   180    14    15    1
   181    18    17    1
   182   165   164    1
   183    16    15    2
   184   147   148    1
   185   159   156    1
   186   159   160    1
   187   164   163    1
   188   164   167    1
   189   157   156    1
   190   157   158    2
   191   161   160   ar
   192   155   156    1
   193   155   149   am
   194   160   162   ar
   195   167   168    1
   196   148   149    1
   197   148   151    1
   198   149   150    2
   199   151   152    1
   200   172   171    1
   201   168   169    1
   202   169   170    1
   203   152   154    1
   204   152   153    1
   205   171   170    2
   206   171   173    1
