@<TRIPOS>MOLECULE
tmp/2jiwA00.pdb
 173 168 0 0 0
SMALL
GASTEIGER

@<TRIPOS>ATOM
      1  N          8.5460   -4.3820    0.4460 N.3   132  GLY132     -0.1210
      2  CA         9.2010   -5.4720    1.1780 C.3   132  GLY132      0.1956
      3  C          8.8770   -6.8470    0.6210 C.2   132  GLY132      0.2612
      4  O          9.0850   -7.8740    1.2910 O.2   132  GLY132     -0.2717
      5  N          8.3850   -6.8590   -0.6190 N.am  133  PHE133     -0.1962
      6  CA         7.9880   -8.0830   -1.3120 C.3   133  PHE133      0.1771
      7  C          9.1750   -8.7220   -2.0380 C.2   133  PHE133      0.2619
      8  O         10.2390   -8.0930   -2.2610 O.2   133  PHE133     -0.2715
      9  CB         6.8720   -7.7600   -2.3330 C.3   133  PHE133      0.0574
     10  CG         7.2530   -6.6560   -3.2870 C.ar  133  PHE133     -0.0200
     11  CD1        8.0780   -6.9190   -4.3880 C.ar  133  PHE133     -0.0042
     12  CD2        6.8200   -5.3610   -3.0680 C.ar  133  PHE133     -0.0042
     13  CE1        8.4660   -5.9010   -5.2600 C.ar  133  PHE133     -0.0003
     14  CE2        7.1990   -4.3290   -3.9140 C.ar  133  PHE133     -0.0003
     15  CZ         8.0190   -4.5920   -5.0230 C.ar  133  PHE133     -0.0000
     16  N          8.9570   -9.9790   -2.4040 N.am  134  TYR134     -0.1974
     17  CA         9.7760  -10.7400   -3.3590 C.3   134  TYR134      0.1639
     18  C          9.3250  -10.4520   -4.7720 C.2   134  TYR134      0.2290
     19  O          8.1320  -10.3020   -5.0200 O.2   134  TYR134     -0.2864
     20  CB         9.6050  -12.2360   -3.1140 C.3   134  TYR134      0.0560
     21  CG        10.0980  -12.7250   -1.7820 C.ar  134  TYR134     -0.0198
     22  CD1       11.4150  -13.1580   -1.6210 C.ar  134  TYR134     -0.0009
     23  CD2        9.2380  -12.7920   -0.6890 C.ar  134  TYR134     -0.0009
     24  CE1       11.8620  -13.6380   -0.4030 C.ar  134  TYR134      0.0417
     25  CE2        9.6680  -13.2550    0.5350 C.ar  134  TYR134      0.0417
     26  CZ        10.9850  -13.6820    0.6710 C.ar  134  TYR134      0.1957
     27  OH        11.4040  -14.1390    1.8850 O.3   134  TYR134     -0.2866
     28  N         13.0250   -7.7140   -1.1020 N.3   163  LYS163     -0.1245
     29  CA        13.7170   -8.9710   -0.7880 C.3   163  LYS163      0.1561
     30  C         14.7970   -9.3360   -1.8350 C.2   163  LYS163      0.2260
     31  O         15.8010  -10.0030   -1.5260 O.2   163  LYS163     -0.2867
     32  CB        12.7050  -10.1060   -0.6860 C.3   163  LYS163      0.0271
     33  CG        11.8660  -10.1320    0.6010 C.3   163  LYS163      0.0035
     34  CD        12.6770  -10.6520    1.8400 C.3   163  LYS163      0.0206
     35  CE        11.7170  -10.7870    3.0760 C.3   163  LYS163      0.1093
     36  NZ        11.1680   -9.4140    3.4850 N.3   163  LYS163     -0.1314
     37  N         13.0880  -11.7030    8.9640 N.3   239  ASP239     -0.1225
     38  CA        11.9850  -12.5260    8.4700 C.3   239  ASP239      0.1805
     39  C         12.4390  -13.5200    7.4150 C.2   239  ASP239      0.2597
     40  O         13.3440  -13.2260    6.6290 O.2   239  ASP239     -0.2718
     41  CB        10.8550  -11.6420    7.9150 C.3   239  ASP239      0.1424
     42  CG        11.3330  -10.6530    6.8620 C.2   239  ASP239      0.3668
     43  OD1       12.4470  -10.0840    6.9870 O.co2 239  ASP239     -0.2456
     44  OD2       10.5630  -10.4300    5.9030 O.co2 239  ASP239     -0.2456
     45  N         11.7890  -14.6860    7.3940 N.am  240  ASP240     -0.1974
     46  CA        12.0120  -15.7020    6.3530 C.3   240  ASP240      0.1709
     47  C         13.4560  -16.1630    6.2920 C.2   240  ASP240      0.2293
     48  O         14.0540  -16.2310    5.2150 O.2   240  ASP240     -0.2864
     49  CB        11.5560  -15.2170    4.9630 C.3   240  ASP240      0.1436
     50  CG        10.0500  -14.9460    4.8760 C.2   240  ASP240      0.3671
     51  OD1        9.3070  -15.2920    5.8120 O.co2 240  ASP240     -0.2456
     52  OD2        9.6120  -14.3760    3.8460 O.co2 240  ASP240     -0.2456
     53  N         12.1010   -6.2280   12.2010 N.3   275  CYS275     -0.1235
     54  CA        11.0750   -7.2270   11.9240 C.3   275  CYS275      0.1677
     55  C         11.5440   -8.5820   12.4770 C.2   275  CYS275      0.2270
     56  O         12.6230   -9.0650   12.1260 O.2   275  CYS275     -0.2867
     57  CB        10.7660   -7.3300   10.4250 C.3   275  CYS275      0.0956
     58  SG         9.4750   -8.5930   10.0400 S.3   275  CYS275     -0.0801
     59  N          7.1470  -13.3970   13.0750 N.3   279  TYR279     -0.1241
     60  CA         6.4860  -12.1470   12.6800 C.3   279  TYR279      0.1605
     61  C          4.9680  -12.2290   12.5710 C.2   279  TYR279      0.2264
     62  O          4.3110  -11.2610   12.2060 O.2   279  TYR279     -0.2867
     63  CB         7.1050  -11.5850   11.3930 C.3   279  TYR279      0.0534
     64  CG         7.0650  -12.4850   10.1730 C.ar  279  TYR279     -0.0201
     65  CD1        5.9180  -12.5440    9.3580 C.ar  279  TYR279     -0.0009
     66  CD2        8.1650  -13.2480    9.8140 C.ar  279  TYR279     -0.0009
     67  CE1        5.8710  -13.3200    8.2230 C.ar  279  TYR279      0.0417
     68  CE2        8.1360  -14.0550    8.6730 C.ar  279  TYR279      0.0417
     69  CZ         6.9740  -14.0720    7.8840 C.ar  279  TYR279      0.1957
     70  OH         6.9410  -14.8510    6.7550 O.3   279  TYR279     -0.2866
     71  N          3.4520  -18.4100   13.1270 N.3   283  TRP283     -0.1241
     72  CA         4.8770  -18.6660   12.9400 C.3   283  TRP283      0.1605
     73  C          5.6430  -18.5040   14.2580 C.2   283  TRP283      0.2264
     74  O          6.8640  -18.7060   14.3260 O.2   283  TRP283     -0.2867
     75  CB         5.4500  -17.7570   11.8530 C.3   283  TRP283      0.0550
     76  CG         5.2310  -18.2830   10.4560 C.ar  283  TRP283      0.0003
     77  CD1        4.1280  -18.9720    9.9790 C.ar  283  TRP283      0.0946
     78  CD2        6.1350  -18.1670    9.3540 C.ar  283  TRP283      0.0152
     79  NE1        4.3080  -19.2980    8.6580 N.ar  283  TRP283     -0.2442
     80  CE2        5.5260  -18.8080    8.2420 C.ar  283  TRP283      0.0810
     81  CE3        7.4040  -17.5770    9.1950 C.ar  283  TRP283      0.0012
     82  CZ2        6.1410  -18.8790    6.9860 C.ar  283  TRP283      0.0191
     83  CZ3        8.0190  -17.6520    7.9480 C.ar  283  TRP283      0.0001
     84  CH2        7.3830  -18.3100    6.8560 C.ar  283  TRP283      0.0015
     85  N          2.7940   -9.0610   11.3330 N.3   307  THR307     -0.1218
     86  CA         1.8710   -9.2470   10.1900 C.3   307  THR307      0.1862
     87  C          0.4870   -9.7950   10.5980 C.2   307  THR307      0.2287
     88  O         -0.4080   -9.9340    9.7610 O.2   307  THR307     -0.2866
     89  CB         2.5020  -10.0930    9.0130 C.3   307  THR307      0.1770
     90  OG1        2.5610  -11.4840    9.3710 O.3   307  THR307     -0.2211
     91  CG2        3.9130   -9.5810    8.6500 C.3   307  THR307      0.0375
     92  N          0.7090  -15.1960    8.2240 N.3   311  VAL311     -0.1231
     93  CA         1.5940  -14.4840    7.2960 C.3   311  VAL311      0.1692
     94  C          0.7710  -13.4270    6.5690 C.2   311  VAL311      0.2591
     95  O          1.1600  -12.2570    6.4990 O.2   311  VAL311     -0.2718
     96  CB         2.2550  -15.4230    6.2620 C.3   311  VAL311      0.0266
     97  CG1        3.0680  -14.6230    5.2360 C.3   311  VAL311      0.0020
     98  CG2        3.1480  -16.4830    6.9430 C.3   311  VAL311      0.0020
     99  N         -0.3770  -13.8430    6.0260 N.am  312  ILE312     -0.1980
    100  CA        -1.3140  -12.8950    5.4320 C.3   312  ILE312      0.1595
    101  C         -2.5740  -12.8360    6.2950 C.2   312  ILE312      0.2287
    102  O         -3.3390  -13.7970    6.3310 O.2   312  ILE312     -0.2864
    103  CB        -1.7160  -13.2450    3.9730 C.3   312  ILE312      0.0276
    104  CG1       -0.5350  -13.7700    3.1440 C.3   312  ILE312      0.0022
    105  CG2       -2.3970  -12.0550    3.3190 C.3   312  ILE312      0.0022
    106  CD1        0.6750  -12.7910    2.9350 C.3   312  ILE312      0.0001
    107  N          2.9810   -4.5590    9.8720 N.3   334  TRP334     -0.1241
    108  CA         3.3410   -4.9100    8.4890 C.3   334  TRP334      0.1605
    109  C          2.1430   -5.6600    7.8930 C.2   334  TRP334      0.2264
    110  O          1.9590   -6.8380    8.1340 O.2   334  TRP334     -0.2867
    111  CB         4.5970   -5.7980    8.4840 C.3   334  TRP334      0.0550
    112  CG         5.1480   -6.3500    7.1280 C.ar  334  TRP334      0.0003
    113  CD1        4.4390   -6.8870    6.0900 C.ar  334  TRP334      0.0946
    114  CD2        6.5300   -6.4110    6.7310 C.ar  334  TRP334      0.0152
    115  NE1        5.2890   -7.2560    5.0660 N.ar  334  TRP334     -0.2442
    116  CE2        6.5780   -7.0010    5.4490 C.ar  334  TRP334      0.0810
    117  CE3        7.7320   -6.0370    7.3500 C.ar  334  TRP334      0.0012
    118  CZ2        7.7810   -7.2190    4.7630 C.ar  334  TRP334      0.0191
    119  CZ3        8.9230   -6.2770    6.6880 C.ar  334  TRP334      0.0001
    120  CH2        8.9430   -6.8590    5.3960 C.ar  334  TRP334      0.0015
    121  N          0.1960   -7.3800    4.9430 N.3   336  ASN336     -0.1240
    122  CA         0.5310   -8.0600    3.7010 C.3   336  ASN336      0.1653
    123  C         -0.6490   -8.0850    2.7460 C.2   336  ASN336      0.2266
    124  O         -1.1930   -9.1490    2.4200 O.2   336  ASN336     -0.2867
    125  CB         1.0520   -9.4710    3.9830 C.3   336  ASN336      0.1155
    126  CG         2.5650   -9.5000    4.2990 C.2   336  ASN336      0.2627
    127  OD1        3.3420   -8.8170    3.6610 O.2   336  ASN336     -0.2716
    128  ND2        2.9690  -10.3260    5.2600 N.am  336  ASN336     -0.0877
    129  N          0.2460   -7.0640   -1.4540 N.3   339  VAL339     -0.1245
    130  CA         1.3450   -7.9000   -1.9290 C.3   339  VAL339      0.1561
    131  C          0.8140   -9.1810   -2.6400 C.2   339  VAL339      0.2260
    132  O         -0.0270   -9.9130   -2.0880 O.2   339  VAL339     -0.2867
    133  CB         2.3850   -8.2300   -0.8070 C.3   339  VAL339      0.0252
    134  CG1        1.7110   -8.8490    0.4230 C.3   339  VAL339      0.0019
    135  CG2        3.4890   -9.1640   -1.3410 C.3   339  VAL339      0.0019
    136  N          2.9620  -11.4750   -4.2850 N.3   341  ASP341     -0.1225
    137  CA         4.2120  -12.1640   -4.6670 C.3   341  ASP341      0.1805
    138  C          4.1170  -13.6890   -4.5350 C.2   341  ASP341      0.2597
    139  O          5.0330  -14.4140   -4.9430 O.2   341  ASP341     -0.2718
    140  CB         5.4540  -11.5910   -3.9370 C.3   341  ASP341      0.1424
    141  CG         5.4050  -11.7530   -2.4180 C.2   341  ASP341      0.3668
    142  OD1        4.4960  -12.4430   -1.9240 O.co2 341  ASP341     -0.2456
    143  OD2        6.2660  -11.1500   -1.7150 O.co2 341  ASP341     -0.2456
    144  N          3.0040  -14.1470   -3.9550 N.am  342  TYR342     -0.1976
    145  CA         2.6690  -15.5760   -3.8670 C.3   342  TYR342      0.1639
    146  C          1.4550  -15.9380   -4.7560 C.2   342  TYR342      0.2290
    147  O          1.0240  -17.0850   -4.8010 O.2   342  TYR342     -0.2864
    148  CB         2.3980  -15.9660   -2.4070 C.3   342  TYR342      0.0560
    149  CG         1.2480  -15.2290   -1.7520 C.ar  342  TYR342     -0.0198
    150  CD1        1.4000  -13.9050   -1.3130 C.ar  342  TYR342     -0.0009
    151  CD2        0.0090  -15.8590   -1.5500 C.ar  342  TYR342     -0.0009
    152  CE1        0.3760  -13.2310   -0.7180 C.ar  342  TYR342      0.0417
    153  CE2       -1.0380  -15.1870   -0.9390 C.ar  342  TYR342      0.0417
    154  CZ        -0.8490  -13.8670   -0.5270 C.ar  342  TYR342      0.1957
    155  OH        -1.8720  -13.2040    0.1030 O.3   342  TYR342     -0.2866
    156  N          2.4850   -3.7560    2.6350 N.3   369  ASN369     -0.1240
    157  CA         3.3860   -4.4090    1.7010 C.3   369  ASN369      0.1653
    158  C          2.6210   -4.5480    0.3750 C.2   369  ASN369      0.2266
    159  O          1.6380   -5.2910    0.2930 O.2   369  ASN369     -0.2867
    160  CB         3.8360   -5.7540    2.2480 C.3   369  ASN369      0.1155
    161  CG         4.9920   -6.3790    1.4700 C.2   369  ASN369      0.2627
    162  OD1        5.7370   -5.7210    0.7310 O.2   369  ASN369     -0.2716
    163  ND2        5.1280   -7.6620    1.6280 N.am  369  ASN369     -0.0877
    164  N         -1.5900  -19.5640    1.5960 N.3   430  HIS430     -0.1241
    165  CA        -1.7980  -18.6980    2.7650 C.3   430  HIS430      0.1621
    166  C         -3.2540  -18.6310    3.2510 C.2   430  HIS430      0.2264
    167  O         -3.5330  -17.9860    4.2490 O.2   430  HIS430     -0.2867
    168  CB        -1.2890  -17.2550    2.4840 C.3   430  HIS430      0.0745
    169  CG         0.2010  -17.1340    2.4570 C.ar  430  HIS430      0.0817
    170  ND1        1.0030  -17.5890    3.4830 N.ar  430  HIS430     -0.2268
    171  CD2        1.0380  -16.6020    1.5360 C.ar  430  HIS430      0.1154
    172  CE1        2.2680  -17.3450    3.1910 C.ar  430  HIS430      0.1986
    173  NE2        2.3180  -16.7570    2.0100 N.ar  430  HIS430     -0.2212
@<TRIPOS>BOND
     1    13    15   ar
     2    13    11   ar
     3    15    14   ar
     4    19    18    2
     5   139   138    2
     6   147   146    2
     7    18    17    1
     8   146   145    1
     9   137   138    1
    10   137   136    1
    11   137   140    1
    12   138   144   am
    13    11    10   ar
    14   144   145    1
    15   140   141    1
    16    14    12   ar
    17   145   148    1
    18    17    20    1
    19    17    16    1
    20    10    12   ar
    21    10     9    1
    22    20    21    1
    23   131   132    2
    24   131   130    1
    25   141   142   ar
    26   141   143   ar
    27   148   149    1
    28    16     7   am
    29     9     6    1
    30     8     7    2
    31     7     6    1
    32   130   129    1
    33   130   133    1
    34    30    31    2
    35    30    29    1
    36    21    22   ar
    37    21    23   ar
    38   149   151   ar
    39   149   150   ar
    40    22    24   ar
    41   151   153   ar
    42   135   133    1
    43   150   152   ar
    44     6     5    1
    45    28    29    1
    46   153   154   ar
    47   133   134    1
    48    29    32    1
    49   152   154   ar
    50    23    25   ar
    51    32    33    1
    52     5     3   am
    53   154   155    1
    54    24    26   ar
    55   159   158    2
    56   158   157    1
    57     1     2    1
    58    25    26   ar
    59    33    34    1
    60     3     2    1
    61     3     4    2
    62    26    27    1
    63   162   161    2
    64   161   163   am
    65   161   160    1
    66   171   173   ar
    67   171   169   ar
    68   164   165    1
    69   157   160    1
    70   157   156    1
    71    34    35    1
    72   173   172   ar
    73   124   123    2
    74   169   168    1
    75   169   170   ar
    76   168   165    1
    77   123   122    1
    78   165   166    1
    79   106   104    1
    80    35    36    1
    81   104   103    1
    82   172   170   ar
    83   166   167    2
    84   105   103    1
    85   127   126    2
    86   122   125    1
    87   122   121    1
    88    52    50   ar
    89   103   100    1
    90   125   126    1
    91   126   128   am
    92   118   120   ar
    93   118   116   ar
    94    50    49    1
    95    50    51   ar
    96    49    46    1
    97   115   116   ar
    98   115   113   ar
    99    48    47    2
   100    97    96    1
   101   120   119   ar
   102   100    99    1
   103   100   101    1
   104   116   114   ar
   105    44    42   ar
   106    99    94   am
   107   113   112   ar
   108    96    98    1
   109    96    93    1
   110    47    46    1
   111   101   102    2
   112    46    45    1
   113    95    94    2
   114    94    93    1
   115    40    39    2
   116   119   117   ar
   117   114   112   ar
   118   114   117   ar
   119    70    69    1
   120    84    82   ar
   121    84    83   ar
   122    42    43   ar
   123    42    41    1
   124    82    80   ar
   125   112   111    1
   126    93    92    1
   127    45    39   am
   128    39    38    1
   129    69    67   ar
   130    69    68   ar
   131   109   110    2
   132   109   108    1
   133    41    38    1
   134    83    81   ar
   135    67    65   ar
   136    80    79   ar
   137    80    78   ar
   138    38    37    1
   139   111   108    1
   140   108   107    1
   141    91    89    1
   142    79    77   ar
   143    68    66   ar
   144    89    90    1
   145    89    86    1
   146    81    78   ar
   147    78    76   ar
   148    65    64   ar
   149    88    87    2
   150    66    64   ar
   151    77    76   ar
   152    58    57    1
   153    64    63    1
   154    86    87    1
   155    86    85    1
   156    57    54    1
   157    76    75    1
   158    63    60    1
   159    75    72    1
   160    54    53    1
   161    54    55    1
   162    56    55    2
   163    62    61    2
   164    61    60    1
   165    60    59    1
   166    72    71    1
   167    72    73    1
   168    73    74    2
