@<TRIPOS>MOLECULE
tmp/2jj3A00.pdb
 185 174 0 0 0
SMALL
GASTEIGER

@<TRIPOS>ATOM
      1  N         76.1860   48.5200   71.7850 N.3    29  MET29      -0.1245
      2  CA        77.3740   47.6580   71.7420 C.3    29  MET29       0.1570
      3  C         77.9550   47.4840   73.1260 C.2    29  MET29       0.2261
      4  O         78.6530   46.4970   73.3870 O.2    29  MET29      -0.2867
      5  CB        78.4140   48.2480   70.8170 C.3    29  MET29       0.0387
      6  CG        77.9390   48.3220   69.3890 C.3    29  MET29       0.0595
      7  SD        77.1300   46.7930   68.8840 S.3    29  MET29      -0.1393
      8  CE        78.5270   45.7110   68.6880 C.3    29  MET29       0.0692
      9  N         75.4570   44.8350   74.7030 N.3    32  LEU32      -0.1231
     10  CA        75.7300   43.5520   74.0840 C.3    32  LEU32       0.1693
     11  C         77.0050   42.9470   74.6590 C.2    32  LEU32       0.2592
     12  O         76.9900   41.7930   75.1170 O.2    32  LEU32      -0.2718
     13  CB        75.8290   43.7040   72.5660 C.3    32  LEU32       0.0284
     14  CG        74.4860   44.0360   71.8980 C.3    32  LEU32       0.0019
     15  CD1       74.6750   44.2600   70.4110 C.3    32  LEU32       0.0001
     16  CD2       73.4970   42.8980   72.1440 C.3    32  LEU32       0.0001
     17  N         78.0870   43.7240   74.6740 N.am   33  THR33      -0.1953
     18  CA        79.3550   43.2370   75.2030 C.3    33  THR33       0.1897
     19  C         79.2920   42.8900   76.6850 C.2    33  THR33       0.2313
     20  O         79.9380   41.9330   77.1230 O.2    33  THR33      -0.2863
     21  CB        80.5250   44.2500   74.9960 C.3    33  THR33       0.1794
     22  OG1       80.2080   45.4840   75.6470 O.3    33  THR33      -0.2208
     23  CG2       80.7770   44.5100   73.5140 C.3    33  THR33       0.0378
     24  N         76.6690   41.8190   78.2010 N.3    35  LEU35      -0.1231
     25  CA        75.8610   40.5990   78.2410 C.3    35  LEU35       0.1693
     26  C         76.7050   39.3720   77.8820 C.2    35  LEU35       0.2591
     27  O         76.7500   38.4010   78.6410 O.2    35  LEU35      -0.2718
     28  CB        74.6920   40.7120   77.2640 C.3    35  LEU35       0.0284
     29  CG        73.8110   39.4720   77.1360 C.3    35  LEU35       0.0019
     30  CD1       73.1650   39.1630   78.4760 C.3    35  LEU35       0.0001
     31  CD2       72.7520   39.7170   76.0630 C.3    35  LEU35       0.0001
     32  N         77.3740   39.4240   76.7320 N.am   36  ALA36      -0.1980
     33  CA        78.2100   38.3120   76.2840 C.3    36  ALA36       0.1597
     34  C         79.1760   37.8860   77.3750 C.2    36  ALA36       0.2287
     35  O         79.2760   36.7000   77.7070 O.2    36  ALA36      -0.2864
     36  CB        78.9770   38.7040   75.0360 C.3    36  ALA36       0.0319
     37  N         77.2980   35.9420   79.8570 N.3    39  GLU39      -0.1245
     38  CA        76.8410   34.6540   79.3420 C.3    39  GLU39       0.1567
     39  C         77.9740   33.6390   79.2390 C.2    39  GLU39       0.2260
     40  O         77.7860   32.4560   79.5410 O.2    39  GLU39      -0.2867
     41  CB        76.1990   34.8180   77.9600 C.3    39  GLU39       0.0388
     42  CG        75.0000   35.7430   77.9330 C.3    39  GLU39       0.1160
     43  CD        74.2260   35.6580   76.6320 C.2    39  GLU39       0.3649
     44  OE1       73.3590   34.7650   76.5070 O.co2  39  GLU39      -0.2457
     45  OE2       74.4890   36.4800   75.7270 O.co2  39  GLU39      -0.2457
     46  N         82.1440   29.7930   71.1850 N.3    69  TRP69      -0.1227
     47  CA        81.3770   30.7220   72.0130 C.3    69  TRP69       0.1737
     48  C         80.3790   31.6530   71.3210 C.2    69  TRP69       0.2595
     49  O         79.2430   31.7850   71.7710 O.2    69  TRP69      -0.2718
     50  CB        82.3110   31.5200   72.9410 C.3    69  TRP69       0.0564
     51  CG        83.1610   32.5250   72.2740 C.ar   69  TRP69       0.0003
     52  CD1       84.3940   32.3300   71.7170 C.ar   69  TRP69       0.0946
     53  CD2       82.8560   33.9120   72.1070 C.ar   69  TRP69       0.0152
     54  NE1       84.8770   33.5150   71.2120 N.ar   69  TRP69      -0.2442
     55  CE2       83.9500   34.5010   71.4330 C.ar   69  TRP69       0.0810
     56  CE3       81.7570   34.7110   72.4460 C.ar   69  TRP69       0.0012
     57  CZ2       83.9860   35.8580   71.1120 C.ar   69  TRP69       0.0191
     58  CZ3       81.7910   36.0600   72.1240 C.ar   69  TRP69       0.0001
     59  CH2       82.8950   36.6170   71.4570 C.ar   69  TRP69       0.0015
     60  N         80.7860   32.2770   70.2280 N.am   70  MET70      -0.1979
     61  CA        79.9010   33.1830   69.5110 C.3    70  MET70       0.1605
     62  C         78.7280   32.4270   68.8540 C.2    70  MET70       0.2287
     63  O         77.6140   32.9570   68.8000 O.2    70  MET70      -0.2864
     64  CB        80.7140   33.9760   68.4780 C.3    70  MET70       0.0413
     65  CG        79.9180   34.9640   67.6500 C.3    70  MET70       0.0598
     66  SD        79.2220   36.3030   68.6120 S.3    70  MET70      -0.1393
     67  CE        80.3500   37.6820   68.2060 C.3    70  MET70       0.0692
     68  N         76.1840   31.4550   71.6840 N.3    73  LEU73      -0.1231
     69  CA        75.4410   32.6140   72.1610 C.3    73  LEU73       0.1693
     70  C         74.3520   32.9280   71.1520 C.2    73  LEU73       0.2591
     71  O         73.2150   33.2350   71.5280 O.2    73  LEU73      -0.2718
     72  CB        76.3610   33.8380   72.3360 C.3    73  LEU73       0.0284
     73  CG        77.3300   33.8100   73.5320 C.3    73  LEU73       0.0019
     74  CD1       78.0250   35.1580   73.6980 C.3    73  LEU73       0.0001
     75  CD2       76.5530   33.4570   74.7970 C.3    73  LEU73       0.0001
     76  N         74.6910   32.8420   69.8680 N.am   74  MET74      -0.1979
     77  CA        73.7140   33.1280   68.8270 C.3    74  MET74       0.1605
     78  C         72.6460   32.0420   68.7240 C.2    74  MET74       0.2287
     79  O         71.4920   32.3360   68.4320 O.2    74  MET74      -0.2864
     80  CB        74.4140   33.3330   67.4850 C.3    74  MET74       0.0413
     81  CG        75.2530   34.6070   67.4640 C.3    74  MET74       0.0598
     82  SD        76.1410   34.8010   65.9160 S.3    74  MET74      -0.1393
     83  CE        76.3440   36.6150   65.8650 C.3    74  MET74       0.0692
     84  N         70.3820   32.8930   71.4220 N.3    77  LEU77      -0.1245
     85  CA        69.6050   34.0810   71.0650 C.3    77  LEU77       0.1561
     86  C         68.4510   33.7490   70.1150 C.2    77  LEU77       0.2260
     87  O         67.3330   34.2350   70.2890 O.2    77  LEU77      -0.2867
     88  CB        70.5160   35.1250   70.4070 C.3    77  LEU77       0.0270
     89  CG        69.7930   36.2640   69.6720 C.3    77  LEU77       0.0019
     90  CD1       69.1460   37.2080   70.6900 C.3    77  LEU77       0.0001
     91  CD2       70.7850   37.0260   68.7930 C.3    77  LEU77       0.0001
     92  N         65.5560   31.8010   71.9620 N.3    80  ARG80      -0.1245
     93  CA        64.6040   32.6140   72.7310 C.3    80  ARG80       0.1563
     94  C         63.8530   33.6690   71.9260 C.2    80  ARG80       0.2260
     95  O         62.8490   34.1970   72.3910 O.2    80  ARG80      -0.2867
     96  CB        65.2460   33.2640   73.9630 C.3    80  ARG80       0.0307
     97  CG        66.6930   33.5530   73.8820 C.3    80  ARG80       0.0489
     98  CD        67.2220   34.0850   75.2120 C.3    80  ARG80       0.2205
     99  NE        68.3500   34.9570   74.9160 N.pl3  80  ARG80      -0.0865
    100  CZ        69.5920   34.5360   74.7250 C.cat  80  ARG80       0.5346
    101  NH1       69.8800   33.2430   74.8280 N.pl3  80  ARG80       0.1354
    102  NH2       70.5340   35.4030   74.3640 N.pl3  80  ARG80       0.1354
    103  N         67.6800   39.2680   73.3880 N.3    90  PHE90      -0.1241
    104  CA        69.0470   39.0360   73.8470 C.3    90  PHE90       0.1605
    105  C         69.0960   38.6700   75.3240 C.2    90  PHE90       0.2264
    106  O         69.9160   37.8570   75.7500 O.2    90  PHE90      -0.2867
    107  CB        69.8950   40.2860   73.6270 C.3    90  PHE90       0.0534
    108  CG        70.4150   40.4250   72.2300 C.ar   90  PHE90      -0.0203
    109  CD1       71.5650   39.7560   71.8380 C.ar   90  PHE90      -0.0042
    110  CD2       69.7520   41.2160   71.3050 C.ar   90  PHE90      -0.0042
    111  CE1       72.0490   39.8710   70.5500 C.ar   90  PHE90      -0.0003
    112  CE2       70.2300   41.3350   70.0110 C.ar   90  PHE90      -0.0003
    113  CZ        71.3810   40.6620   69.6310 C.ar   90  PHE90      -0.0000
    114  N         75.9340   46.2500   61.9810 N.3   107  ILE107     -0.1245
    115  CA        75.1110   45.4070   62.8280 C.3   107  ILE107      0.1561
    116  C         73.7860   45.0180   62.1970 C.2   107  ILE107      0.2260
    117  O         73.3180   43.8950   62.3830 O.2   107  ILE107     -0.2867
    118  CB        74.8380   46.0870   64.1790 C.3   107  ILE107      0.0252
    119  CG1       76.1010   46.0330   65.0400 C.3   107  ILE107      0.0019
    120  CG2       73.6800   45.4080   64.8860 C.3   107  ILE107      0.0019
    121  CD1       76.6060   44.6270   65.3120 C.3   107  ILE107      0.0001
    122  N         74.0320   41.8260   60.3880 N.3   110  ILE110     -0.1231
    123  CA        74.0880   40.6620   61.2640 C.3   110  ILE110      0.1692
    124  C         72.7120   40.3390   61.8620 C.2   110  ILE110      0.2592
    125  O         72.3370   39.1730   61.9640 O.2   110  ILE110     -0.2718
    126  CB        75.1110   40.8980   62.3890 C.3   110  ILE110      0.0266
    127  CG1       76.4730   41.2230   61.7700 C.3   110  ILE110      0.0019
    128  CG2       75.2260   39.6670   63.2760 C.3   110  ILE110      0.0020
    129  CD1       77.5800   41.4480   62.7870 C.3   110  ILE110      0.0001
    130  N         71.9660   41.3720   62.2460 N.am  111  PHE111     -0.1976
    131  CA        70.6240   41.2060   62.8090 C.3   111  PHE111      0.1639
    132  C         69.7260   40.4960   61.8050 C.2   111  PHE111      0.2290
    133  O         68.8910   39.6580   62.1690 O.2   111  PHE111     -0.2864
    134  CB        70.0140   42.5740   63.1460 C.3   111  PHE111      0.0560
    135  CG        70.3620   43.0730   64.5180 C.ar  111  PHE111     -0.0200
    136  CD1       71.4730   42.5830   65.1860 C.ar  111  PHE111     -0.0042
    137  CD2       69.5680   44.0130   65.1490 C.ar  111  PHE111     -0.0042
    138  CE1       71.7830   43.0150   66.4580 C.ar  111  PHE111     -0.0003
    139  CE2       69.8740   44.4510   66.4250 C.ar  111  PHE111     -0.0003
    140  CZ        70.9830   43.9460   67.0750 C.ar  111  PHE111     -0.0000
    141  N         70.5460   36.8020   61.6660 N.3   114  LEU114     -0.1245
    142  CA        70.0190   36.1590   62.8600 C.3   114  LEU114      0.1561
    143  C         68.5070   36.0430   62.7730 C.2   114  LEU114      0.2260
    144  O         67.9390   35.0140   63.1210 O.2   114  LEU114     -0.2867
    145  CB        70.4060   36.9650   64.1030 C.3   114  LEU114      0.0270
    146  CG        71.9050   37.0820   64.4170 C.3   114  LEU114      0.0019
    147  CD1       72.1150   38.1080   65.5370 C.3   114  LEU114      0.0001
    148  CD2       72.4640   35.7200   64.8240 C.3   114  LEU114      0.0001
    149  N         79.6930   38.0320   63.1470 N.3   199  GLY199     -0.1225
    150  CA        79.7080   38.6880   64.4440 C.3   199  GLY199      0.1811
    151  C         81.1200   38.8560   64.9700 C.2   199  GLY199      0.2280
    152  O         81.4380   39.8830   65.5620 O.2   199  GLY199     -0.2866
    153  N         82.9570   41.6270   62.9520 N.3   202  HIS202     -0.1226
    154  CA        82.4760   42.9200   63.4020 C.3   202  HIS202      0.1752
    155  C         83.0180   43.2930   64.7800 C.2   202  HIS202      0.2595
    156  O         83.3290   44.4540   65.0400 O.2   202  HIS202     -0.2718
    157  CB        80.9450   42.9160   63.4380 C.3   202  HIS202      0.0759
    158  CG        80.3510   44.2200   63.8680 C.ar  202  HIS202      0.0818
    159  ND1       80.4510   44.6960   65.1580 N.ar  202  HIS202     -0.2268
    160  CD2       79.6890   45.1700   63.1650 C.ar  202  HIS202      0.1154
    161  CE1       79.8800   45.8850   65.2290 C.ar  202  HIS202      0.1986
    162  NE2       79.4100   46.1950   64.0350 N.ar  202  HIS202     -0.2212
    163  N         83.1370   42.3060   65.6580 N.am  203  LEU203     -0.1980
    164  CA        83.6160   42.5520   67.0110 C.3   203  LEU203      0.1596
    165  C         85.0840   42.9640   67.0370 C.2   203  LEU203      0.2287
    166  O         85.4930   43.8100   67.8290 O.2   203  LEU203     -0.2864
    167  CB        83.4240   41.3040   67.8730 C.3   203  LEU203      0.0297
    168  CG        84.0060   41.3650   69.2850 C.3   203  LEU203      0.0022
    169  CD1       83.2910   42.4400   70.0460 C.3   203  LEU203      0.0001
    170  CD2       83.8350   40.0470   69.9980 C.3   203  LEU203      0.0001
    171  N         85.5900   46.2940   65.5830 N.3   206  MET206     -0.1245
    172  CA        84.9880   47.2740   66.4640 C.3   206  MET206      0.1570
    173  C         85.9930   48.2370   67.0740 C.2   206  MET206      0.2261
    174  O         87.1170   47.8590   67.3980 O.2   206  MET206     -0.2867
    175  CB        84.2250   46.5880   67.5900 C.3   206  MET206      0.0387
    176  CG        82.9450   47.2720   67.9460 C.3   206  MET206      0.0595
    177  SD        82.5540   47.0110   69.6770 S.3   206  MET206     -0.1393
    178  CE        83.5160   45.5930   70.0570 C.3   206  MET206      0.0692
    179  N         85.4630   41.1710   75.4470 N.3   212  VAL212     -0.1245
    180  CA        84.9400   39.8540   75.6870 C.3   212  VAL212      0.1561
    181  C         85.9300   38.7530   75.4290 C.2   212  VAL212      0.2260
    182  O         86.1280   37.9090   76.2940 O.2   212  VAL212     -0.2867
    183  CB        83.6680   39.6060   74.8420 C.3   212  VAL212      0.0252
    184  CG1       82.9820   38.2850   75.2550 C.3   212  VAL212      0.0019
    185  CG2       82.7330   40.7550   75.0580 C.3   212  VAL212      0.0019
@<TRIPOS>BOND
     1   122   123    1
     2   123   124    1
     3   123   126    1
     4   141   142    1
     5   127   126    1
     6   127   129    1
     7   132   133    2
     8   132   131    1
     9   124   125    2
    10   124   130   am
    11   114   115    1
    12   116   117    2
    13   116   115    1
    14   130   131    1
    15   126   128    1
    16   143   142    1
    17   143   144    2
    18   131   134    1
    19   115   118    1
    20   142   145    1
    21   153   154    1
    22   134   135    1
    23   149   150    1
    24   160   158   ar
    25   160   162   ar
    26   154   157    1
    27   154   155    1
    28   157   158    1
    29   158   159   ar
    30   162   161   ar
    31   145   146    1
    32   118   120    1
    33   118   119    1
    34   146   148    1
    35   146   147    1
    36   150   151    1
    37   135   137   ar
    38   135   136   ar
    39   155   156    2
    40   155   163   am
    41   151   152    2
    42   119   121    1
    43   137   139   ar
    44   159   161   ar
    45   136   138   ar
    46   171   172    1
    47   163   164    1
    48    83    82    1
    49    82    81    1
    50   139   140   ar
    51   138   140   ar
    52   172   173    1
    53   172   175    1
    54   164   165    1
    55   164   167    1
    56   165   166    2
    57   173   174    2
    58    81    80    1
    59    80    77    1
    60   175   176    1
    61    65    64    1
    62    65    66    1
    63   167   168    1
    64   176   177    1
    65    67    66    1
    66    79    78    2
    67    64    61    1
    68     8     7    1
    69    78    77    1
    70    91    89    1
    71    63    62    2
    72    77    76    1
    73    62    61    1
    74     7     6    1
    75   168   170    1
    76   168   169    1
    77     6     5    1
    78    61    60    1
    79   113   112   ar
    80   113   111   ar
    81    89    88    1
    82    89    90    1
    83   177   178    1
    84    76    70   am
    85   112   110   ar
    86    86    87    2
    87    86    85    1
    88    60    48   am
    89    88    85    1
    90    15    14    1
    91   111   109   ar
    92     5     2    1
    93    85    84    1
    94    57    55   ar
    95    57    59   ar
    96    70    71    2
    97    70    69    1
    98    46    47    1
    99    54    55   ar
   100    54    52   ar
   101   110   108   ar
   102    48    49    2
   103    48    47    1
   104    55    53   ar
   105    59    58   ar
   106    68    69    1
   107    52    51   ar
   108     2     1    1
   109     2     3    1
   110   109   108   ar
   111    14    16    1
   112    14    13    1
   113    94    95    2
   114    94    93    1
   115    92    93    1
   116    47    50    1
   117    53    51   ar
   118    53    56   ar
   119    58    56   ar
   120    69    72    1
   121   108   107    1
   122    51    50    1
   123    72    73    1
   124    13    10    1
   125    93    96    1
   126     3     4    2
   127   103   104    1
   128    23    21    1
   129    73    74    1
   130    73    75    1
   131   107   104    1
   132   104   105    1
   133    97    96    1
   134    97    98    1
   135    10    11    1
   136    10     9    1
   137   102   100    1
   138    11    17   am
   139    11    12    2
   140    17    18    1
   141   100   101    1
   142   100    99    2
   143   183   185    1
   144   183   184    1
   145   183   180    1
   146    99    98    1
   147    21    18    1
   148    21    22    1
   149    36    33    1
   150    18    19    1
   151   105   106    2
   152   181   180    1
   153   181   182    2
   154   179   180    1
   155    45    43   ar
   156    31    29    1
   157    33    32    1
   158    33    34    1
   159    44    43   ar
   160    43    42    1
   161    19    20    2
   162    32    26   am
   163    29    28    1
   164    29    30    1
   165    28    25    1
   166    34    35    2
   167    26    25    1
   168    26    27    2
   169    42    41    1
   170    41    38    1
   171    24    25    1
   172    39    38    1
   173    39    40    2
   174    38    37    1
