@<TRIPOS>MOLECULE
tmp/2jj8C00.pdb
 148 140 0 0 0
SMALL
GASTEIGER

@<TRIPOS>ATOM
      1  N         47.5200  -30.6890  -35.4770 N.3    18  ILE18      -0.1245
      2  CA        46.2130  -30.6620  -36.1120 C.3    18  ILE18       0.1561
      3  C         45.7060  -32.1170  -36.1250 C.2    18  ILE18       0.2260
      4  O         46.4460  -33.0320  -36.5080 O.2    18  ILE18      -0.2867
      5  CB        46.2570  -30.0550  -37.5370 C.3    18  ILE18       0.0252
      6  CG1       46.9370  -28.6790  -37.5130 C.3    18  ILE18       0.0019
      7  CG2       44.8250  -29.9560  -38.1120 C.3    18  ILE18       0.0019
      8  CD1       47.2990  -28.0960  -38.8940 C.3    18  ILE18       0.0001
      9  N         40.0680  -22.7630  -29.1440 N.3    41  GLU41      -0.1245
     10  CA        40.8320  -21.9810  -30.0980 C.3    41  GLU41       0.1567
     11  C         39.9190  -20.9610  -30.8320 C.2    41  GLU41       0.2260
     12  O         38.8520  -21.3330  -31.3400 O.2    41  GLU41      -0.2867
     13  CB        41.4840  -22.9500  -31.0990 C.3    41  GLU41       0.0388
     14  CG        42.8460  -22.5290  -31.6030 C.3    41  GLU41       0.1160
     15  CD        43.3710  -23.4430  -32.6980 C.2    41  GLU41       0.3649
     16  OE1       42.5590  -24.0500  -33.4290 O.co2  41  GLU41      -0.2457
     17  OE2       44.6010  -23.5610  -32.8420 O.co2  41  GLU41      -0.2457
     18  N         39.2190  -19.7870  -33.6180 N.3    43  VAL43      -0.1245
     19  CA        39.0810  -19.8890  -35.0820 C.3    43  VAL43       0.1561
     20  C         37.9450  -19.0260  -35.6230 C.2    43  VAL43       0.2260
     21  O         38.0520  -18.4570  -36.7140 O.2    43  VAL43      -0.2867
     22  CB        38.7800  -21.3260  -35.5680 C.3    43  VAL43       0.0252
     23  CG1       39.5000  -21.5800  -36.8620 C.3    43  VAL43       0.0019
     24  CG2       39.1900  -22.3560  -34.5420 C.3    43  VAL43       0.0019
     25  N         39.1300  -15.6460  -36.0930 N.3    46  TRP46      -0.1241
     26  CA        40.0280  -15.5590  -37.2520 C.3    46  TRP46       0.1605
     27  C         39.2430  -15.5680  -38.5590 C.2    46  TRP46       0.2264
     28  O         39.6860  -14.9960  -39.5560 O.2    46  TRP46      -0.2867
     29  CB        41.0990  -16.6650  -37.2650 C.3    46  TRP46       0.0550
     30  CG        41.7770  -16.9080  -35.9420 C.ar   46  TRP46       0.0003
     31  CD1       41.8900  -16.0350  -34.8990 C.ar   46  TRP46       0.0946
     32  CD2       42.4420  -18.1060  -35.5300 C.ar   46  TRP46       0.0152
     33  NE1       42.5740  -16.6190  -33.8590 N.ar   46  TRP46      -0.2442
     34  CE2       42.9290  -17.8880  -34.2230 C.ar   46  TRP46       0.0810
     35  CE3       42.6780  -19.3440  -36.1440 C.ar   46  TRP46       0.0012
     36  CZ2       43.6370  -18.8570  -33.5170 C.ar   46  TRP46       0.0191
     37  CZ3       43.3890  -20.3130  -35.4440 C.ar   46  TRP46       0.0001
     38  CH2       43.8550  -20.0640  -34.1410 C.ar   46  TRP46       0.0015
     39  N         41.5480  -16.3780  -42.1090 N.3    55  LEU55      -0.1245
     40  CA        41.9510  -17.7700  -42.3060 C.3    55  LEU55       0.1561
     41  C         42.0050  -18.1350  -43.8030 C.2    55  LEU55       0.2260
     42  O         43.0540  -18.5790  -44.2950 O.2    55  LEU55      -0.2867
     43  CB        41.0270  -18.7110  -41.5270 C.3    55  LEU55       0.0270
     44  CG        41.4390  -20.1770  -41.3700 C.3    55  LEU55       0.0019
     45  CD1       42.9120  -20.3130  -40.9270 C.3    55  LEU55       0.0001
     46  CD2       40.5090  -20.8510  -40.3870 C.3    55  LEU55       0.0001
     47  N         44.7110  -16.4930  -45.8410 N.3    58  MET58      -0.1230
     48  CA        46.0270  -17.0080  -45.5130 C.3    58  MET58       0.1702
     49  C         46.3490  -18.2420  -46.3580 C.2    58  MET58       0.2592
     50  O         47.4590  -18.3480  -46.9170 O.2    58  MET58      -0.2718
     51  CB        46.1070  -17.3190  -44.0270 C.3    58  MET58       0.0401
     52  CG        47.4730  -17.1470  -43.4510 C.3    58  MET58       0.0596
     53  SD        48.5060  -18.5780  -43.7510 S.3    58  MET58      -0.1393
     54  CE        47.5380  -19.8890  -42.9630 C.3    58  MET58       0.0692
     55  N         45.3790  -19.1580  -46.4680 N.am   59  TYR59      -0.1976
     56  CA        45.5380  -20.3250  -47.3410 C.3    59  TYR59       0.1639
     57  C         45.7270  -19.8670  -48.7970 C.2    59  TYR59       0.2290
     58  O         46.6880  -20.2970  -49.4470 O.2    59  TYR59      -0.2864
     59  CB        44.3610  -21.2990  -47.2040 C.3    59  TYR59       0.0560
     60  CG        44.2780  -21.9270  -45.7950 C.ar   59  TYR59      -0.0198
     61  CD1       45.4420  -22.3860  -45.1700 C.ar   59  TYR59      -0.0009
     62  CD2       43.0420  -22.0650  -45.2130 C.ar   59  TYR59      -0.0009
     63  CE1       45.2950  -23.0610  -43.9510 C.ar   59  TYR59       0.0417
     64  CE2       42.8930  -22.6630  -44.0160 C.ar   59  TYR59       0.0417
     65  CZ        44.0230  -23.2270  -43.4020 C.ar   59  TYR59       0.1957
     66  OH        43.8480  -23.7680  -42.1740 O.3    59  TYR59      -0.2866
     67  N         47.7250  -12.5080  -40.3260 N.3    69  PHE69      -0.1227
     68  CA        47.0320  -13.6500  -39.7210 C.3    69  PHE69       0.1736
     69  C         47.6320  -14.0910  -38.3640 C.2    69  PHE69       0.2595
     70  O         46.9250  -14.1420  -37.3540 O.2    69  PHE69      -0.2718
     71  CB        46.9830  -14.8320  -40.7030 C.3    69  PHE69       0.0547
     72  CG        46.4880  -16.0950  -40.0820 C.ar   69  PHE69      -0.0202
     73  CD1       45.1800  -16.1810  -39.6130 C.ar   69  PHE69      -0.0042
     74  CD2       47.3310  -17.1860  -39.9290 C.ar   69  PHE69      -0.0042
     75  CE1       44.7110  -17.3500  -39.0060 C.ar   69  PHE69      -0.0003
     76  CE2       46.8840  -18.3460  -39.3220 C.ar   69  PHE69      -0.0003
     77  CZ        45.5700  -18.4340  -38.8570 C.ar   69  PHE69      -0.0000
     78  N         48.9310  -14.3950  -38.3520 N.am   70  GLN70      -0.1979
     79  CA        49.6200  -14.7490  -37.1210 C.3    70  GLN70       0.1601
     80  C         49.6240  -13.5960  -36.1050 C.2    70  GLN70       0.2287
     81  O         49.5220  -13.8300  -34.8860 O.2    70  GLN70      -0.2864
     82  CB        51.0510  -15.1950  -37.4120 C.3    70  GLN70       0.0394
     83  CG        51.1730  -16.4800  -38.2280 C.3    70  GLN70       0.0908
     84  CD        50.4640  -17.6770  -37.5790 C.2    70  GLN70       0.2608
     85  OE1       49.9330  -18.5340  -38.2840 O.2    70  GLN70      -0.2717
     86  NE2       50.4490  -17.7360  -36.2380 N.am   70  GLN70      -0.0878
     87  N         46.2690  -13.8950  -34.6470 N.3    73  VAL73      -0.1245
     88  CA        46.1680  -15.0840  -33.8130 C.3    73  VAL73       0.1561
     89  C         46.7640  -14.7490  -32.4540 C.2    73  VAL73       0.2260
     90  O         46.1240  -14.9950  -31.3950 O.2    73  VAL73      -0.2867
     91  CB        46.8580  -16.2800  -34.4470 C.3    73  VAL73       0.0252
     92  CG1       47.0120  -17.4150  -33.4580 C.3    73  VAL73       0.0019
     93  CG2       46.0510  -16.7510  -35.6210 C.3    73  VAL73       0.0019
     94  N         44.9440  -14.9320  -28.8180 N.3    77  MET77      -0.1245
     95  CA        45.4860  -15.7680  -27.7460 C.3    77  MET77       0.1570
     96  C         45.6130  -14.9370  -26.4740 C.2    77  MET77       0.2261
     97  O         45.2260  -15.3800  -25.3830 O.2    77  MET77      -0.2867
     98  CB        46.8290  -16.4090  -28.1160 C.3    77  MET77       0.0387
     99  CG        46.7630  -17.4740  -29.2250 C.3    77  MET77       0.0595
    100  SD        45.6190  -18.8110  -28.8090 S.3    77  MET77      -0.1393
    101  CE        45.8380  -19.9010  -30.2100 C.3    77  MET77       0.0692
    102  N         45.0510  -24.7610  -27.2260 N.3    94  ARG94      -0.1245
    103  CA        46.1800  -24.0270  -27.7960 C.3    94  ARG94       0.1563
    104  C         46.4220  -22.7250  -27.0300 C.2    94  ARG94       0.2260
    105  O         45.6900  -22.4110  -26.0680 O.2    94  ARG94      -0.2867
    106  CB        46.0000  -23.7810  -29.2930 C.3    94  ARG94       0.0307
    107  CG        46.1000  -25.0370  -30.1300 C.3    94  ARG94       0.0489
    108  CD        47.1040  -24.8470  -31.2480 C.3    94  ARG94       0.2205
    109  NE        47.4170  -26.0810  -31.9590 N.pl3  94  ARG94      -0.0865
    110  CZ        46.7900  -26.5040  -33.0490 C.cat  94  ARG94       0.5346
    111  NH1       45.7950  -25.7970  -33.5780 N.pl3  94  ARG94       0.1354
    112  NH2       47.1620  -27.6350  -33.6240 N.pl3  94  ARG94       0.1354
    113  N         51.3110  -20.9370  -30.9730 N.3    99  ALA99      -0.1245
    114  CA        51.2970  -20.0290  -32.1250 C.3    99  ALA99       0.1562
    115  C         52.7080  -19.5570  -32.4480 C.2    99  ALA99       0.2260
    116  O         53.1020  -19.5560  -33.6130 O.2    99  ALA99      -0.2867
    117  CB        50.3450  -18.8440  -31.9000 C.3    99  ALA99       0.0290
    118  N         53.5140  -22.6780  -35.0350 N.3   103  PHE103     -0.1241
    119  CA        52.9940  -22.1910  -36.3180 C.3   103  PHE103      0.1605
    120  C         53.8370  -21.0770  -36.9590 C.2   103  PHE103      0.2264
    121  O         54.0920  -21.1050  -38.1650 O.2   103  PHE103     -0.2867
    122  CB        51.5090  -21.8160  -36.2060 C.3   103  PHE103      0.0534
    123  CG        50.5990  -23.0010  -35.9430 C.ar  103  PHE103     -0.0203
    124  CD1       50.3060  -23.3980  -34.6430 C.ar  103  PHE103     -0.0042
    125  CD2       50.0590  -23.7400  -37.0130 C.ar  103  PHE103     -0.0042
    126  CE1       49.4730  -24.5250  -34.4140 C.ar  103  PHE103     -0.0003
    127  CE2       49.2190  -24.8560  -36.7960 C.ar  103  PHE103     -0.0003
    128  CZ        48.9300  -25.2510  -35.5090 C.ar  103  PHE103     -0.0000
    129  N         56.2920  -21.3080  -40.3200 N.3   107  MET107     -0.1245
    130  CA        56.1130  -20.4200  -41.4710 C.3   107  MET107      0.1570
    131  C         57.4000  -19.6860  -41.8510 C.2   107  MET107      0.2261
    132  O         57.5840  -19.2940  -43.0090 O.2   107  MET107     -0.2867
    133  CB        55.0040  -19.4280  -41.2160 C.3   107  MET107      0.0387
    134  CG        53.6500  -19.9760  -41.4700 C.3   107  MET107      0.0595
    135  SD        52.4350  -18.8760  -40.7430 S.3   107  MET107     -0.1393
    136  CE        50.9200  -19.7570  -41.1820 C.3   107  MET107      0.0692
    137  N         53.3640  -31.0990  -43.8800 N.3   157  TYR157     -0.1241
    138  CA        53.0320  -30.0220  -42.9580 C.3   157  TYR157      0.1605
    139  C         52.8420  -30.5630  -41.5360 C.2   157  TYR157      0.2264
    140  O         53.4730  -30.0800  -40.5760 O.2   157  TYR157     -0.2867
    141  CB        51.7720  -29.3270  -43.4510 C.3   157  TYR157      0.0534
    142  CG        51.4000  -28.0560  -42.7230 C.ar  157  TYR157     -0.0201
    143  CD1       52.2690  -26.9520  -42.6870 C.ar  157  TYR157     -0.0009
    144  CD2       50.1430  -27.9400  -42.1110 C.ar  157  TYR157     -0.0009
    145  CE1       51.8980  -25.7700  -42.0270 C.ar  157  TYR157      0.0417
    146  CE2       49.7640  -26.7710  -41.4520 C.ar  157  TYR157      0.0417
    147  CZ        50.6360  -25.6940  -41.4040 C.ar  157  TYR157      0.1957
    148  OH        50.2050  -24.5670  -40.7380 O.3   157  TYR157     -0.2866
@<TRIPOS>BOND
     1    58    57    2
     2    57    56    1
     3    56    59    1
     4    56    55    1
     5    59    60    1
     6    50    49    2
     7    55    49   am
     8    49    48    1
     9    47    48    1
    10    60    62   ar
    11    60    61   ar
    12    48    51    1
    13    62    64   ar
    14    61    63   ar
    15    42    41    2
    16    51    52    1
    17    64    65   ar
    18    63    65   ar
    19   137   138    1
    20    41    40    1
    21    53    52    1
    22    53    54    1
    23   141   138    1
    24   141   142    1
    25    65    66    1
    26   132   131    2
    27   138   139    1
    28   142   143   ar
    29   142   144   ar
    30   143   145   ar
    31    40    39    1
    32    40    43    1
    33   144   146   ar
    34   145   147   ar
    35   131   130    1
    36   139   140    2
    37    43    44    1
    38   130   133    1
    39   130   129    1
    40   134   133    1
    41   134   135    1
    42   146   147   ar
    43   147   148    1
    44    44    45    1
    45    44    46    1
    46   136   135    1
    47    71    72    1
    48    71    68    1
    49    67    68    1
    50    72    74   ar
    51    72    73   ar
    52    74    76   ar
    53    68    69    1
    54    73    75   ar
    55    28    27    2
    56    76    77   ar
    57    75    77   ar
    58     8     6    1
    59    27    26    1
    60    69    78   am
    61    69    70    2
    62    78    79    1
    63    85    84    2
    64    83    84    1
    65    83    82    1
    66   121   120    2
    67     7     5    1
    68    84    86   am
    69     5     6    1
    70     5     2    1
    71    82    79    1
    72    29    26    1
    73    29    30    1
    74    26    25    1
    75    79    80    1
    76   125   127   ar
    77   125   123   ar
    78   120   119    1
    79    23    22    1
    80   127   128   ar
    81    21    20    2
    82     4     3    2
    83   119   122    1
    84   119   118    1
    85   122   123    1
    86    35    32   ar
    87    35    37   ar
    88     3     2    1
    89     2     1    1
    90    80    81    2
    91   123   124   ar
    92    30    32   ar
    93    30    31   ar
    94    20    19    1
    95    93    91    1
    96    22    19    1
    97    22    24    1
    98    32    34   ar
    99   128   126   ar
   100    37    38   ar
   101    19    18    1
   102    31    33   ar
   103    87    88    1
   104   124   126   ar
   105    91    88    1
   106    91    92    1
   107    34    33   ar
   108    34    36   ar
   109    38    36   ar
   110    88    89    1
   111   112   110    1
   112   116   115    2
   113   111   110    1
   114    16    15   ar
   115   110   109    2
   116    17    15   ar
   117    15    14    1
   118    89    90    2
   119   115   114    1
   120   114   117    1
   121   114   113    1
   122   109   108    1
   123    14    13    1
   124    12    11    2
   125   108   107    1
   126    13    10    1
   127    11    10    1
   128   101   100    1
   129   107   106    1
   130    10     9    1
   131   106   103    1
   132    99   100    1
   133    99    98    1
   134    94    95    1
   135    98    95    1
   136   103   102    1
   137   103   104    1
   138    95    96    1
   139   104   105    2
   140    96    97    2
