@<TRIPOS>MOLECULE
tmp/2jjbB01.pdb
 126 117 0 0 0
SMALL
GASTEIGER

@<TRIPOS>ATOM
      1  N         -7.6730  -34.7130   85.6690 N.3    27  LYS27      -0.1245
      2  CA        -7.3380  -35.1680   87.0130 C.3    27  LYS27       0.1561
      3  C         -8.1520  -34.4180   88.0650 C.2    27  LYS27       0.2260
      4  O         -8.3290  -34.8960   89.1780 O.2    27  LYS27      -0.2867
      5  CB        -5.8580  -35.0420   87.2840 C.3    27  LYS27       0.0271
      6  CG        -5.3840  -35.8210   88.5250 C.3    27  LYS27       0.0035
      7  CD        -3.8770  -35.6610   88.6440 C.3    27  LYS27       0.0206
      8  CE        -3.3330  -36.3950   89.8760 C.3    27  LYS27       0.1093
      9  NZ        -3.7090  -35.6390   91.1000 N.3    27  LYS27      -0.1314
     10  N         -0.1980  -30.3230   89.9770 N.3   110  ARG110     -0.1231
     11  CA        -1.3860  -31.1910   89.8730 C.3   110  ARG110      0.1694
     12  C         -1.1450  -32.5140   90.6410 C.2   110  ARG110      0.2592
     13  O         -2.0590  -33.3150   90.8320 O.2   110  ARG110     -0.2718
     14  CB        -1.7380  -31.4780   88.3950 C.3   110  ARG110      0.0321
     15  CG        -0.7700  -32.3950   87.6560 C.3   110  ARG110      0.0489
     16  CD        -0.9560  -32.3920   86.1350 C.3   110  ARG110      0.2205
     17  NE        -2.1810  -33.0620   85.6860 N.pl3 110  ARG110     -0.0865
     18  CZ        -2.2180  -34.2590   85.1020 C.cat 110  ARG110      0.5346
     19  NH1       -1.0950  -34.9380   84.9150 N.pl3 110  ARG110      0.1354
     20  NH2       -3.3820  -34.7790   84.7100 N.pl3 110  ARG110      0.1354
     21  N          0.1000  -32.7400   91.0250 N.am  111  PHE111     -0.1976
     22  CA         0.4540  -33.9980   91.6840 C.3   111  PHE111      0.1639
     23  C          0.3240  -33.7960   93.1950 C.2   111  PHE111      0.2290
     24  O          1.2810  -33.4210   93.8750 O.2   111  PHE111     -0.2864
     25  CB         1.8150  -34.5050   91.1870 C.3   111  PHE111      0.0560
     26  CG         1.8580  -34.7190   89.6780 C.ar  111  PHE111     -0.0200
     27  CD1        1.0100  -35.6490   89.0570 C.ar  111  PHE111     -0.0042
     28  CD2        2.6940  -33.9470   88.8800 C.ar  111  PHE111     -0.0042
     29  CE1        1.0310  -35.8360   87.7110 C.ar  111  PHE111     -0.0003
     30  CE2        2.7320  -34.1240   87.5070 C.ar  111  PHE111     -0.0003
     31  CZ         1.9020  -35.0660   86.9110 C.ar  111  PHE111     -0.0000
     32  N          4.0780  -40.1190   95.1390 N.3   115  TYR115     -0.1241
     33  CA         4.3770  -40.9890   93.9620 C.3   115  TYR115      0.1605
     34  C          5.4360  -42.0130   94.3150 C.2   115  TYR115      0.2264
     35  O          6.4110  -41.6910   94.9830 O.2   115  TYR115     -0.2867
     36  CB         4.7620  -40.1790   92.6850 C.3   115  TYR115      0.0534
     37  CG         3.5280  -39.6440   92.0560 C.ar  115  TYR115     -0.0201
     38  CD1        2.8380  -38.5660   92.6540 C.ar  115  TYR115     -0.0009
     39  CD2        2.9750  -40.2470   90.9210 C.ar  115  TYR115     -0.0009
     40  CE1        1.6390  -38.1190   92.1420 C.ar  115  TYR115      0.0417
     41  CE2        1.7460  -39.7920   90.3890 C.ar  115  TYR115      0.0417
     42  CZ         1.0890  -38.7250   91.0260 C.ar  115  TYR115      0.1957
     43  OH        -0.1240  -38.2530   90.5550 O.3   115  TYR115     -0.2866
     44  N          0.8770  -46.7430   92.5100 N.3   154  ASN154     -0.1240
     45  CA         1.4990  -45.6510   91.7360 C.3   154  ASN154      0.1653
     46  C          1.5220  -44.3870   92.6010 C.2   154  ASN154      0.2266
     47  O          2.5190  -43.6670   92.6450 O.2   154  ASN154     -0.2867
     48  CB         0.6620  -45.5070   90.4420 C.3   154  ASN154      0.1155
     49  CG         1.1810  -44.4570   89.4270 C.2   154  ASN154      0.2627
     50  OD1        0.8850  -44.6010   88.2320 O.2   154  ASN154     -0.2716
     51  ND2        1.9020  -43.4160   89.8650 N.am  154  ASN154     -0.0877
     52  N         -5.1830  -45.3040   91.5340 N.3   160  TYR160     -0.1241
     53  CA        -3.8150  -45.8420   91.3680 C.3   160  TYR160      0.1605
     54  C         -3.6080  -47.2310   91.9680 C.2   160  TYR160      0.2264
     55  O         -2.5090  -47.8190   91.8270 O.2   160  TYR160     -0.2867
     56  CB        -2.7580  -44.9090   91.9620 C.3   160  TYR160      0.0534
     57  CG        -2.5040  -43.6140   91.1930 C.ar  160  TYR160     -0.0201
     58  CD1       -2.6330  -43.5590   89.8040 C.ar  160  TYR160     -0.0009
     59  CD2       -2.1180  -42.4610   91.8680 C.ar  160  TYR160     -0.0009
     60  CE1       -2.3870  -42.3710   89.0950 C.ar  160  TYR160      0.0417
     61  CE2       -1.8690  -41.2680   91.1840 C.ar  160  TYR160      0.0417
     62  CZ        -2.0040  -41.2300   89.8030 C.ar  160  TYR160      0.1957
     63  OH        -1.7640  -40.0620   89.1340 O.3   160  TYR160     -0.2866
     64  N         -2.3300  -50.6470   90.0790 N.3   163  ARG163     -0.1245
     65  CA        -0.9550  -50.7900   89.6090 C.3   163  ARG163      0.1563
     66  C          0.0490  -50.2750   90.6290 C.2   163  ARG163      0.2260
     67  O         -0.3270  -49.5960   91.5790 O.2   163  ARG163     -0.2867
     68  CB        -0.7780  -50.0420   88.2820 C.3   163  ARG163      0.0307
     69  CG        -1.1140  -48.5460   88.3700 C.3   163  ARG163      0.0489
     70  CD        -0.7140  -47.8640   87.0550 C.3   163  ARG163      0.2205
     71  NE        -1.0690  -46.4340   86.9920 N.pl3 163  ARG163     -0.0865
     72  CZ        -2.2660  -45.9690   86.6630 C.cat 163  ARG163      0.5346
     73  NH1       -3.2620  -46.8020   86.3910 N.pl3 163  ARG163      0.1354
     74  NH2       -2.4760  -44.6470   86.6070 N.pl3 163  ARG163      0.1354
     75  N          4.5500  -49.1300   90.5460 N.3   165  GLN165     -0.1245
     76  CA         5.4050  -48.2500   89.7720 C.3   165  GLN165      0.1566
     77  C          6.8010  -48.8780   89.7920 C.2   165  GLN165      0.2260
     78  O          6.9550  -49.9600   90.3910 O.2   165  GLN165     -0.2867
     79  CB         5.3820  -46.8150   90.3310 C.3   165  GLN165      0.0367
     80  CG         4.7170  -45.8080   89.3350 C.3   165  GLN165      0.0905
     81  CD         5.0570  -44.3620   89.6220 C.2   165  GLN165      0.2608
     82  OE1        5.4870  -44.0280   90.7190 O.2   165  GLN165     -0.2717
     83  NE2        4.8560  -43.4850   88.6240 N.am  165  GLN165     -0.0878
     84  N         -8.1380  -44.7140   82.2270 N.3   235  ARG235     -0.1245
     85  CA        -7.6590  -44.1560   83.5060 C.3   235  ARG235      0.1563
     86  C         -8.5780  -42.9970   83.9310 C.2   235  ARG235      0.2260
     87  O         -8.7970  -42.0880   83.1460 O.2   235  ARG235     -0.2867
     88  CB        -6.2380  -43.6290   83.3470 C.3   235  ARG235      0.0307
     89  CG        -5.2000  -44.7320   83.0260 C.3   235  ARG235      0.0489
     90  CD        -3.8260  -44.1450   82.7000 C.3   235  ARG235      0.2205
     91  NE        -3.8720  -43.3370   81.4760 N.pl3 235  ARG235     -0.0865
     92  CZ        -2.9920  -42.4030   81.1240 C.cat 235  ARG235      0.5346
     93  NH1       -1.9440  -42.1130   81.8870 N.pl3 235  ARG235      0.1354
     94  NH2       -3.1690  -41.7400   79.9820 N.pl3 235  ARG235      0.1354
     95  N         -7.9730  -40.4590   85.7450 N.3   237  GLU237     -0.1231
     96  CA        -7.2230  -39.2070   85.7090 C.3   237  GLU237      0.1699
     97  C         -6.8320  -38.7180   84.2920 C.2   237  GLU237      0.2592
     98  O         -6.2900  -37.6170   84.1510 O.2   237  GLU237     -0.2718
     99  CB        -5.9600  -39.3020   86.5710 C.3   237  GLU237      0.0402
    100  CG        -4.7700  -40.1440   85.9760 C.3   237  GLU237      0.1161
    101  CD        -4.9030  -41.6900   86.1440 C.2   237  GLU237      0.3649
    102  OE1       -5.9670  -42.1800   86.5430 O.co2 237  GLU237     -0.2457
    103  OE2       -3.9240  -42.4220   85.8450 O.co2 237  GLU237     -0.2457
    104  N         -7.0820  -39.5600   83.2910 N.am  238  SER238     -0.1952
    105  CA        -6.8490  -39.2530   81.8610 C.3   238  SER238      0.1924
    106  C         -8.0150  -39.7650   81.0200 C.2   238  SER238      0.2314
    107  O         -7.8410  -40.2900   79.9120 O.2   238  SER238     -0.2863
    108  CB        -5.5610  -39.9220   81.4120 C.3   238  SER238      0.2116
    109  OG        -4.5290  -39.6020   82.3190 O.3   238  SER238     -0.2180
    110  N          1.7600  -46.4050   82.3260 N.3   265  ALA265     -0.1245
    111  CA         1.7340  -45.5050   83.4840 C.3   265  ALA265      0.1562
    112  C          2.4360  -46.1980   84.6760 C.2   265  ALA265      0.2260
    113  O          3.1700  -45.5610   85.4280 O.2   265  ALA265     -0.2867
    114  CB         0.3040  -45.1600   83.8270 C.3   265  ALA265      0.0290
    115  N          6.1240  -45.7560   84.7380 N.3   268  GLY268     -0.1225
    116  CA         6.5910  -44.3750   84.9200 C.3   268  GLY268      0.1811
    117  C          6.7690  -43.6360   83.5880 C.2   268  GLY268      0.2280
    118  O          6.7840  -42.3860   83.5570 O.2   268  GLY268     -0.2866
    119  N          4.9080  -43.0020   80.8220 N.3   270  ASP270     -0.1239
    120  CA         3.6830  -42.7200   80.0780 C.3   270  ASP270      0.1674
    121  C          3.8400  -41.3410   79.4100 C.2   270  ASP270      0.2266
    122  O          3.7530  -40.3360   80.1000 O.2   270  ASP270     -0.2867
    123  CB         2.4220  -42.7310   80.9970 C.3   270  ASP270      0.1410
    124  CG         2.6100  -41.9270   82.3000 C.2   270  ASP270      0.3668
    125  OD1        3.4830  -42.2790   83.1200 O.co2 270  ASP270     -0.2456
    126  OD2        1.8680  -40.9410   82.5170 O.co2 270  ASP270     -0.2456
@<TRIPOS>BOND
     1   121   120    1
     2   121   122    2
     3   107   106    2
     4    94    92    1
     5   120   119    1
     6   120   123    1
     7   123   124    1
     8   106   105    1
     9    92    91    2
    10    92    93    1
    11   108   105    1
    12   108   109    1
    13    91    90    1
    14   105   104    1
    15    84    85    1
    16   124   126   ar
    17   124   125   ar
    18   110   111    1
    19    90    89    1
    20    89    88    1
    21    87    86    2
    22   104    97   am
    23    88    85    1
    24   111   114    1
    25   111   112    1
    26    85    86    1
    27   118   117    2
    28   117   116    1
    29    98    97    2
    30    97    96    1
    31   112   113    2
    32    20    18    1
    33   115   116    1
    34    19    18    1
    35    18    17    2
    36     1     2    1
    37    17    16    1
    38    96    95    1
    39    96    99    1
    40   103   101   ar
    41   100   101    1
    42   100    99    1
    43    16    15    1
    44   101   102   ar
    45    73    72    1
    46    74    72    1
    47    72    71    2
    48    31    30   ar
    49    31    29   ar
    50    71    70    1
    51     2     5    1
    52     2     3    1
    53    70    69    1
    54     5     6    1
    55    30    28   ar
    56    15    14    1
    57    29    27   ar
    58     3     4    2
    59    50    49    2
    60    68    69    1
    61    68    65    1
    62    14    11    1
    63     6     7    1
    64    83    81   am
    65     7     8    1
    66    28    26   ar
    67    27    26   ar
    68    60    62   ar
    69    60    58   ar
    70    63    62    1
    71    80    81    1
    72    80    79    1
    73    49    51   am
    74    49    48    1
    75    65    64    1
    76    65    66    1
    77    81    82    2
    78    26    25    1
    79    76    77    1
    80    76    79    1
    81    76    75    1
    82    77    78    2
    83    62    61   ar
    84    58    57   ar
    85    11    10    1
    86    11    12    1
    87     8     9    1
    88    41    39   ar
    89    41    42   ar
    90    48    45    1
    91    43    42    1
    92    66    67    2
    93    12    13    2
    94    12    21   am
    95    39    37   ar
    96    21    22    1
    97    42    40   ar
    98    61    59   ar
    99    25    22    1
   100    57    59   ar
   101    57    56    1
   102    53    52    1
   103    53    56    1
   104    53    54    1
   105    22    23    1
   106    45    44    1
   107    45    46    1
   108    55    54    2
   109    37    38   ar
   110    37    36    1
   111    40    38   ar
   112    46    47    2
   113    36    33    1
   114    23    24    2
   115    33    34    1
   116    33    32    1
   117    34    35    2
