@<TRIPOS>MOLECULE
tmp/2jjbB00.pdb
 155 155 0 0 0
SMALL
GASTEIGER

@<TRIPOS>ATOM
      1  N          5.1230  -34.4330   94.5380 N.3   107  PRO107     -0.2116
      2  CA         5.9960  -33.8410   93.5100 C.3   107  PRO107      0.1372
      3  C          5.8090  -32.3060   93.3500 C.2   107  PRO107      0.2244
      4  O          6.7840  -31.5870   93.1640 O.2   107  PRO107     -0.2868
      5  CB         5.5710  -34.5800   92.2280 C.3   107  PRO107      0.0268
      6  CG         5.1330  -35.9420   92.7490 C.3   107  PRO107      0.0207
      7  CD         4.3750  -35.5990   94.0350 C.3   107  PRO107      0.0892
      8  N         -0.1980  -30.3230   89.9770 N.3   110  ARG110     -0.1231
      9  CA        -1.3860  -31.1910   89.8730 C.3   110  ARG110      0.1694
     10  C         -1.1450  -32.5140   90.6410 C.2   110  ARG110      0.2592
     11  O         -2.0590  -33.3150   90.8320 O.2   110  ARG110     -0.2718
     12  CB        -1.7380  -31.4780   88.3950 C.3   110  ARG110      0.0321
     13  CG        -0.7700  -32.3950   87.6560 C.3   110  ARG110      0.0489
     14  CD        -0.9560  -32.3920   86.1350 C.3   110  ARG110      0.2205
     15  NE        -2.1810  -33.0620   85.6860 N.pl3 110  ARG110     -0.0865
     16  CZ        -2.2180  -34.2590   85.1020 C.cat 110  ARG110      0.5346
     17  NH1       -1.0950  -34.9380   84.9150 N.pl3 110  ARG110      0.1354
     18  NH2       -3.3820  -34.7790   84.7100 N.pl3 110  ARG110      0.1354
     19  N          0.1000  -32.7400   91.0250 N.am  111  PHE111     -0.1976
     20  CA         0.4540  -33.9980   91.6840 C.3   111  PHE111      0.1639
     21  C          0.3240  -33.7960   93.1950 C.2   111  PHE111      0.2290
     22  O          1.2810  -33.4210   93.8750 O.2   111  PHE111     -0.2864
     23  CB         1.8150  -34.5050   91.1870 C.3   111  PHE111      0.0560
     24  CG         1.8580  -34.7190   89.6780 C.ar  111  PHE111     -0.0200
     25  CD1        1.0100  -35.6490   89.0570 C.ar  111  PHE111     -0.0042
     26  CD2        2.6940  -33.9470   88.8800 C.ar  111  PHE111     -0.0042
     27  CE1        1.0310  -35.8360   87.7110 C.ar  111  PHE111     -0.0003
     28  CE2        2.7320  -34.1240   87.5070 C.ar  111  PHE111     -0.0003
     29  CZ         1.9020  -35.0660   86.9110 C.ar  111  PHE111     -0.0000
     30  N          4.0780  -40.1190   95.1390 N.3   115  TYR115     -0.1241
     31  CA         4.3770  -40.9890   93.9620 C.3   115  TYR115      0.1605
     32  C          5.4360  -42.0130   94.3150 C.2   115  TYR115      0.2264
     33  O          6.4110  -41.6910   94.9830 O.2   115  TYR115     -0.2867
     34  CB         4.7620  -40.1790   92.6850 C.3   115  TYR115      0.0534
     35  CG         3.5280  -39.6440   92.0560 C.ar  115  TYR115     -0.0201
     36  CD1        2.8380  -38.5660   92.6540 C.ar  115  TYR115     -0.0009
     37  CD2        2.9750  -40.2470   90.9210 C.ar  115  TYR115     -0.0009
     38  CE1        1.6390  -38.1190   92.1420 C.ar  115  TYR115      0.0417
     39  CE2        1.7460  -39.7920   90.3890 C.ar  115  TYR115      0.0417
     40  CZ         1.0890  -38.7250   91.0260 C.ar  115  TYR115      0.1957
     41  OH        -0.1240  -38.2530   90.5550 O.3   115  TYR115     -0.2866
     42  N          7.9670  -44.0570   92.5220 N.3   117  TRP117     -0.1227
     43  CA         9.3820  -43.8920   92.1660 C.3   117  TRP117      0.1737
     44  C          9.9390  -42.4930   92.4120 C.2   117  TRP117      0.2595
     45  O         11.0900  -42.3660   92.8400 O.2   117  TRP117     -0.2718
     46  CB         9.7480  -44.4840   90.8120 C.3   117  TRP117      0.0564
     47  CG         9.4060  -43.7520   89.5200 C.ar  117  TRP117      0.0003
     48  CD1        8.2310  -43.1220   89.1900 C.ar  117  TRP117      0.0946
     49  CD2       10.2320  -43.6970   88.3460 C.ar  117  TRP117      0.0152
     50  NE1        8.2870  -42.6690   87.8800 N.ar  117  TRP117     -0.2442
     51  CE2        9.5090  -42.9900   87.3530 C.ar  117  TRP117      0.0810
     52  CE3       11.5220  -44.1510   88.0470 C.ar  117  TRP117      0.0012
     53  CZ2       10.0340  -42.7380   86.0810 C.ar  117  TRP117      0.0191
     54  CZ3       12.0570  -43.8830   86.7770 C.ar  117  TRP117      0.0001
     55  CH2       11.3070  -43.1980   85.8080 C.ar  117  TRP117      0.0015
     56  N          9.1020  -41.4740   92.2200 N.am  118  ASP118     -0.1974
     57  CA         9.5030  -40.0990   92.5110 C.3   118  ASP118      0.1709
     58  C         10.0090  -40.0030   93.9260 C.2   118  ASP118      0.2293
     59  O         10.9620  -39.3020   94.1760 O.2   118  ASP118     -0.2864
     60  CB         8.3510  -39.1070   92.4450 C.3   118  ASP118      0.1436
     61  CG         7.7220  -39.0170   91.0840 C.2   118  ASP118      0.3671
     62  OD1        7.5900  -37.8940   90.5660 O.co2 118  ASP118     -0.2456
     63  OD2        7.3450  -40.0590   90.5560 O.co2 118  ASP118     -0.2456
     64  N          4.5500  -49.1300   90.5460 N.3   165  GLN165     -0.1245
     65  CA         5.4050  -48.2500   89.7720 C.3   165  GLN165      0.1566
     66  C          6.8010  -48.8780   89.7920 C.2   165  GLN165      0.2260
     67  O          6.9550  -49.9600   90.3910 O.2   165  GLN165     -0.2867
     68  CB         5.3820  -46.8150   90.3310 C.3   165  GLN165      0.0367
     69  CG         4.7170  -45.8080   89.3350 C.3   165  GLN165      0.0905
     70  CD         5.0570  -44.3620   89.6220 C.2   165  GLN165      0.2608
     71  OE1        5.4870  -44.0280   90.7190 O.2   165  GLN165     -0.2717
     72  NE2        4.8560  -43.4850   88.6240 N.am  165  GLN165     -0.0878
     73  N          6.1240  -45.7560   84.7380 N.3   268  GLY268     -0.1225
     74  CA         6.5910  -44.3750   84.9200 C.3   268  GLY268      0.1811
     75  C          6.7690  -43.6360   83.5880 C.2   268  GLY268      0.2280
     76  O          6.7840  -42.3860   83.5570 O.2   268  GLY268     -0.2866
     77  N          4.9080  -43.0020   80.8220 N.3   270  ASP270     -0.1239
     78  CA         3.6830  -42.7200   80.0780 C.3   270  ASP270      0.1674
     79  C          3.8400  -41.3410   79.4100 C.2   270  ASP270      0.2266
     80  O          3.7530  -40.3360   80.1000 O.2   270  ASP270     -0.2867
     81  CB         2.4220  -42.7310   80.9970 C.3   270  ASP270      0.1410
     82  CG         2.6100  -41.9270   82.3000 C.2   270  ASP270      0.3668
     83  OD1        3.4830  -42.2790   83.1200 O.co2 270  ASP270     -0.2456
     84  OD2        1.8680  -40.9410   82.5170 O.co2 270  ASP270     -0.2456
     85  N          6.0740  -37.6490   76.1340 N.3   404  GLN404     -0.1231
     86  CA         6.8400  -37.1940   77.3070 C.3   404  GLN404      0.1698
     87  C          8.1630  -37.9290   77.5750 C.2   404  GLN404      0.2592
     88  O          9.1880  -37.2930   77.8670 O.2   404  GLN404     -0.2718
     89  CB         5.9700  -37.2560   78.5630 C.3   404  GLN404      0.0381
     90  CG         4.8970  -36.1750   78.6440 C.3   404  GLN404      0.0905
     91  CD         5.5000  -34.8300   78.9930 C.2   404  GLN404      0.2608
     92  OE1        6.0540  -34.1540   78.1350 O.2   404  GLN404     -0.2717
     93  NE2        5.4040  -34.4410   80.2670 N.am  404  GLN404     -0.0878
     94  N          8.1250  -39.2590   77.5290 N.am  405  TRP405     -0.1976
     95  CA         9.3080  -40.0680   77.8120 C.3   405  TRP405      0.1640
     96  C         10.0480  -40.4100   76.5140 C.2   405  TRP405      0.2290
     97  O         10.1200  -41.5720   76.0760 O.2   405  TRP405     -0.2864
     98  CB         8.9290  -41.2810   78.6950 C.3   405  TRP405      0.0576
     99  CG         8.5010  -40.7340   80.0340 C.ar  405  TRP405      0.0006
    100  CD1        7.3030  -40.1480   80.3310 C.ar  405  TRP405      0.0946
    101  CD2        9.3050  -40.6160   81.2040 C.ar  405  TRP405      0.0152
    102  NE1        7.2970  -39.7150   81.6320 N.ar  405  TRP405     -0.2442
    103  CE2        8.5220  -39.9730   82.1860 C.ar  405  TRP405      0.0810
    104  CE3       10.6040  -41.0120   81.5280 C.ar  405  TRP405      0.0012
    105  CZ2        8.9880  -39.7270   83.4760 C.ar  405  TRP405      0.0191
    106  CZ3       11.0840  -40.7500   82.8200 C.ar  405  TRP405      0.0001
    107  CH2       10.2770  -40.1110   83.7700 C.ar  405  TRP405      0.0015
    108  N         14.6790  -36.2400   82.1470 N.3   411  TRP411     -0.1241
    109  CA        13.9820  -36.3740   83.4270 C.3   411  TRP411      0.1605
    110  C         14.9770  -36.6900   84.5480 C.2   411  TRP411      0.2264
    111  O         15.7880  -37.6030   84.4160 O.2   411  TRP411     -0.2867
    112  CB        12.9700  -37.5050   83.3340 C.3   411  TRP411      0.0550
    113  CG        11.8300  -37.2510   82.3970 C.ar  411  TRP411      0.0003
    114  CD1       11.7770  -37.5410   81.0670 C.ar  411  TRP411      0.0946
    115  CD2       10.5660  -36.6840   82.7370 C.ar  411  TRP411      0.0152
    116  NE1       10.5510  -37.1810   80.5480 N.ar  411  TRP411     -0.2442
    117  CE2        9.7890  -36.6520   81.5580 C.ar  411  TRP411      0.0810
    118  CE3       10.0080  -36.1880   83.9290 C.ar  411  TRP411      0.0012
    119  CZ2        8.4920  -36.1590   81.5420 C.ar  411  TRP411      0.0191
    120  CZ3        8.7150  -35.7160   83.9050 C.ar  411  TRP411      0.0001
    121  CH2        7.9760  -35.7000   82.7250 C.ar  411  TRP411      0.0015
    122  N          9.2400  -30.3430   86.3960 N.3   454  GLU454     -0.1245
    123  CA         9.2450  -31.8060   86.2730 C.3   454  GLU454      0.1567
    124  C         10.2260  -32.3970   85.2580 C.2   454  GLU454      0.2260
    125  O         10.7310  -33.5000   85.4640 O.2   454  GLU454     -0.2867
    126  CB         7.8230  -32.3090   86.0070 C.3   454  GLU454      0.0388
    127  CG         7.2700  -31.9940   84.6370 C.3   454  GLU454      0.1160
    128  CD         5.8040  -32.3590   84.5270 C.2   454  GLU454      0.3649
    129  OE1        5.4290  -33.4960   84.9280 O.co2 454  GLU454     -0.2457
    130  OE2        5.0300  -31.5040   84.0410 O.co2 454  GLU454     -0.2457
    131  N         10.1850  -29.1700   92.0930 N.3   467  PHE467     -0.1241
    132  CA         9.4100  -30.3640   91.7190 C.3   467  PHE467      0.1605
    133  C         10.1310  -31.5670   92.3180 C.2   467  PHE467      0.2264
    134  O         11.3160  -31.7290   92.0970 O.2   467  PHE467     -0.2867
    135  CB         9.3030  -30.5460   90.2050 C.3   467  PHE467      0.0534
    136  CG         8.3120  -31.5990   89.7970 C.ar  467  PHE467     -0.0203
    137  CD1        6.9540  -31.2900   89.6840 C.ar  467  PHE467     -0.0042
    138  CD2        8.7270  -32.9240   89.5580 C.ar  467  PHE467     -0.0042
    139  CE1        6.0220  -32.2510   89.3090 C.ar  467  PHE467     -0.0003
    140  CE2        7.7930  -33.9100   89.1890 C.ar  467  PHE467     -0.0003
    141  CZ         6.4460  -33.5820   89.0580 C.ar  467  PHE467     -0.0000
    142  N         11.2590  -34.8770   92.3770 N.3   469  TRP469     -0.1241
    143  CA        12.4950  -35.5560   91.9170 C.3   469  TRP469      0.1605
    144  C         13.5970  -34.6630   91.3250 C.2   469  TRP469      0.2264
    145  O         14.7900  -34.9540   91.4570 O.2   469  TRP469     -0.2867
    146  CB        12.2410  -36.7810   91.0250 C.3   469  TRP469      0.0550
    147  CG        11.4760  -36.6200   89.7340 C.ar  469  TRP469      0.0003
    148  CD1       11.3670  -35.4990   88.9400 C.ar  469  TRP469      0.0946
    149  CD2       10.7840  -37.6710   89.0350 C.ar  469  TRP469      0.0152
    150  NE1       10.6040  -35.7870   87.8170 N.ar  469  TRP469     -0.2442
    151  CE2       10.2400  -37.1110   87.8550 C.ar  469  TRP469      0.0810
    152  CE3       10.5620  -39.0370   89.3030 C.ar  469  TRP469      0.0012
    153  CZ2        9.4770  -37.8630   86.9560 C.ar  469  TRP469      0.0191
    154  CZ3        9.7970  -39.7820   88.4060 C.ar  469  TRP469      0.0001
    155  CH2        9.2640  -39.1950   87.2460 C.ar  469  TRP469      0.0015
@<TRIPOS>BOND
     1    97    96    2
     2    85    86    1
     3    96    95    1
     4    86    87    1
     5    86    89    1
     6    94    87   am
     7    94    95    1
     8    87    88    2
     9    95    98    1
    10    92    91    2
    11    89    90    1
    12    90    91    1
    13    98    99    1
    14    91    93   am
    15    79    78    1
    16    79    80    2
    17    99   100   ar
    18    99   101   ar
    19    78    77    1
    20    78    81    1
    21   100   102   ar
    22   116   114   ar
    23   116   117   ar
    24    81    82    1
    25   114   113   ar
    26   101   104   ar
    27   101   103   ar
    28   104   106   ar
    29   119   117   ar
    30   119   121   ar
    31   117   115   ar
    32   102   103   ar
    33   108   109    1
    34   103   105   ar
    35    82    84   ar
    36    82    83   ar
    37   113   115   ar
    38   113   112    1
    39   121   120   ar
    40   115   118   ar
    41   106   107   ar
    42   112   109    1
    43   109   110    1
    44   105   107   ar
    45    76    75    2
    46    75    74    1
    47   120   118   ar
    48   130   128   ar
    49   111   110    2
    50   128   127    1
    51   128   129   ar
    52   127   126    1
    53    18    16    1
    54    73    74    1
    55    17    16    1
    56    16    15    2
    57   124   125    2
    58   124   123    1
    59    15    14    1
    60    55    53   ar
    61    55    54   ar
    62   126   123    1
    63    53    51   ar
    64    14    13    1
    65   123   122    1
    66    54    52   ar
    67    29    28   ar
    68    29    27   ar
    69   153   155   ar
    70   153   151   ar
    71   155   154   ar
    72    51    50   ar
    73    51    49   ar
    74    28    26   ar
    75    13    12    1
    76    27    25   ar
    77   150   151   ar
    78   150   148   ar
    79   151   149   ar
    80    50    48   ar
    81    52    49   ar
    82    49    47   ar
    83    12     9    1
    84   154   152   ar
    85    72    70   am
    86    26    24   ar
    87   148   147   ar
    88   149   152   ar
    89   149   147   ar
    90    25    24   ar
    91   141   140   ar
    92   141   139   ar
    93   140   138   ar
    94    48    47   ar
    95   139   137   ar
    96    69    70    1
    97    69    68    1
    98    47    46    1
    99   138   136   ar
   100    70    71    2
   101    24    23    1
   102   137   136   ar
   103   147   146    1
   104    65    66    1
   105    65    68    1
   106    65    64    1
   107    66    67    2
   108   136   135    1
   109     9     8    1
   110     9    10    1
   111   135   132    1
   112    39    37   ar
   113    39    40   ar
   114    41    40    1
   115    63    61   ar
   116    62    61   ar
   117    10    11    2
   118    10    19   am
   119    46    43    1
   120    37    35   ar
   121   146   143    1
   122    19    20    1
   123    40    38   ar
   124    61    60    1
   125    23    20    1
   126   144   145    2
   127   144   143    1
   128    20    21    1
   129   132   131    1
   130   132   133    1
   131   143   142    1
   132    35    36   ar
   133    35    34    1
   134   134   133    2
   135    38    36   ar
   136    43    44    1
   137    43    42    1
   138    56    44   am
   139    56    57    1
   140     5     6    1
   141     5     2    1
   142    44    45    2
   143    60    57    1
   144    57    58    1
   145    34    31    1
   146     6     7    1
   147     4     3    2
   148    21    22    2
   149     3     2    1
   150     2     1    1
   151    58    59    2
   152    31    32    1
   153    31    30    1
   154     7     1    1
   155    32    33    2
