@<TRIPOS>MOLECULE
tmp/2jjkB00.pdb
 131 124 0 0 0
SMALL
GASTEIGER

@<TRIPOS>ATOM
      1  N         27.2640    7.8040   31.3380 N.3     9  VAL9       -0.1231
      2  CA        28.4640    7.3590   32.0150 C.3     9  VAL9        0.1692
      3  C         28.1450    6.2740   33.0370 C.2     9  VAL9        0.2591
      4  O         28.7610    5.2150   33.0420 O.2     9  VAL9       -0.2718
      5  CB        29.2090    8.5750   32.6190 C.3     9  VAL9        0.0266
      6  CG1       30.0130    8.2060   33.8090 C.3     9  VAL9        0.0020
      7  CG2       30.0570    9.1930   31.5570 C.3     9  VAL9        0.0020
      8  N         27.1460    6.5420   33.8750 N.am   10  MET10      -0.1979
      9  CA        26.7060    5.6100   34.8790 C.3    10  MET10       0.1605
     10  C         26.3170    4.2680   34.2390 C.2    10  MET10       0.2287
     11  O         26.5550    3.1920   34.7940 O.2    10  MET10      -0.2864
     12  CB        25.5300    6.2490   35.6270 C.3    10  MET10       0.0413
     13  CG        25.0380    5.4590   36.7880 C.3    10  MET10       0.0598
     14  SD        26.0530    5.6120   38.2480 S.3    10  MET10      -0.1393
     15  CE        25.1910    4.4380   39.2650 C.3    10  MET10       0.0692
     16  N         27.5770    3.0680   31.3260 N.3    12  GLU12      -0.1231
     17  CA        28.7700    2.3750   30.8140 C.3    12  GLU12       0.1699
     18  C         29.4930    1.6710   31.9600 C.2    12  GLU12       0.2593
     19  O         29.9710    0.5470   31.8040 O.2    12  GLU12      -0.2718
     20  CB        29.7370    3.3330   30.1190 C.3    12  GLU12       0.0402
     21  CG        29.2800    3.8770   28.7710 C.3    12  GLU12       0.1161
     22  CD        29.0690    2.8290   27.6920 C.2    12  GLU12       0.3649
     23  OE1       28.3100    3.1250   26.7360 O.co2  12  GLU12      -0.2457
     24  OE2       29.6410    1.7230   27.7750 O.co2  12  GLU12      -0.2457
     25  N         29.5480    2.3510   33.1070 N.am   13  GLY13      -0.1942
     26  CA        30.1580    1.8290   34.3240 C.3    13  GLY13       0.2014
     27  C         29.4730    0.5890   34.8580 C.2    13  GLY13       0.2638
     28  O         30.1280   -0.3210   35.3960 O.2    13  GLY13      -0.2714
     29  N         28.1530    0.5370   34.7280 N.am   14  ARG14      -0.1977
     30  CA        27.4140   -0.6410   35.1530 C.3    14  ARG14       0.1597
     31  C         27.6370   -1.8340   34.2050 C.2    14  ARG14       0.2287
     32  O         27.7250   -2.9750   34.6650 O.2    14  ARG14      -0.2864
     33  CB        25.9250   -0.3140   35.3570 C.3    14  ARG14       0.0334
     34  CG        25.6570    0.5600   36.6120 C.3    14  ARG14       0.0492
     35  CD        24.1960    1.0240   36.7170 C.3    14  ARG14       0.2205
     36  NE        23.3130   -0.0950   37.0610 N.pl3  14  ARG14      -0.0865
     37  CZ        22.0100   -0.1580   36.7840 C.cat  14  ARG14       0.5346
     38  NH1       21.3950    0.8330   36.1420 N.pl3  14  ARG14       0.1354
     39  NH2       21.3170   -1.2330   37.1450 N.pl3  14  ARG14       0.1354
     40  N         30.3260   -2.3840   32.6960 N.3    16  ALA16      -0.1245
     41  CA        31.7030   -2.7480   32.9270 C.3    16  ALA16       0.1562
     42  C         31.8690   -3.3370   34.3160 C.2    16  ALA16       0.2260
     43  O         32.9350   -3.8610   34.6380 O.2    16  ALA16      -0.2867
     44  CB        32.5880   -1.5240   32.7690 C.3    16  ALA16       0.0290
     45  N         32.1170   -1.6640   36.9700 N.3    18  GLY18      -0.1210
     46  CA        33.0040   -0.7640   37.6900 C.3    18  GLY18       0.1956
     47  C         32.4650   -0.4250   39.0600 C.2    18  GLY18       0.2613
     48  O         31.2800   -0.5530   39.3310 O.2    18  GLY18      -0.2717
     49  N         33.3490    0.0090   39.9320 N.am   19  THR19      -0.1938
     50  CA        32.9870    0.3640   41.2950 C.3    19  THR19       0.2028
     51  C         32.3790    1.7780   41.4010 C.2    19  THR19       0.2643
     52  O         31.9290    2.1900   42.4670 O.2    19  THR19      -0.2714
     53  CB        34.2300    0.2750   42.2040 C.3    19  THR19       0.1808
     54  OG1       35.2010    1.2320   41.7640 O.3    19  THR19      -0.2208
     55  CG2       34.8420   -1.1340   42.1440 C.3    19  THR19       0.0379
     56  N         32.3920    2.5260   40.3010 N.am   20  GLY20      -0.1939
     57  CA        31.7230    3.8250   40.2800 C.3    20  GLY20       0.2014
     58  C         32.6500    5.0260   40.3480 C.2    20  GLY20       0.2639
     59  O         32.1930    6.1520   40.1180 O.2    20  GLY20      -0.2714
     60  N         33.9400    4.7880   40.6290 N.am   21  GLU21      -0.1963
     61  CA        34.9190    5.8680   40.8740 C.3    21  GLU21       0.1733
     62  C         35.1910    6.7520   39.6490 C.2    21  GLU21       0.2616
     63  O         35.3230    7.9760   39.7730 O.2    21  GLU21      -0.2715
     64  CB        36.2400    5.3040   41.4210 C.3    21  GLU21       0.0429
     65  CG        37.2420    6.3800   41.9020 C.3    21  GLU21       0.1163
     66  CD        38.5530    5.8260   42.4330 C.2    21  GLU21       0.3649
     67  OE1       39.1830    5.0080   41.7430 O.co2  21  GLU21      -0.2457
     68  OE2       38.9840    6.2240   43.5370 O.co2  21  GLU21      -0.2457
     69  N         35.2950    6.1470   38.4680 N.am   22  LEU22      -0.1963
     70  CA        35.4580    6.9240   37.2510 C.3    22  LEU22       0.1728
     71  C         34.2250    7.7850   37.0120 C.2    22  LEU22       0.2616
     72  O         34.3290    8.9410   36.6010 O.2    22  LEU22      -0.2715
     73  CB        35.7200    6.0170   36.0490 C.3    22  LEU22       0.0311
     74  CG        35.9320    6.6960   34.6850 C.3    22  LEU22       0.0022
     75  CD1       37.0520    7.7340   34.6650 C.3    22  LEU22       0.0001
     76  CD2       36.2080    5.6470   33.6310 C.3    22  LEU22       0.0001
     77  N         33.0530    7.2240   37.2780 N.am   23  THR23      -0.1951
     78  CA        31.7990    7.9710   37.1520 C.3    23  THR23       0.1897
     79  C         31.8580    9.1890   38.0570 C.2    23  THR23       0.2313
     80  O         31.4940   10.2900   37.6380 O.2    23  THR23      -0.2863
     81  CB        30.5500    7.0810   37.4520 C.3    23  THR23       0.1794
     82  OG1       30.4240    6.0750   36.4430 O.3    23  THR23      -0.2208
     83  CG2       29.2580    7.8920   37.5140 C.3    23  THR23       0.0378
     84  N         34.1840   11.7160   36.4040 N.3    26  LEU26      -0.1245
     85  CA        33.5610   12.3700   35.2560 C.3    26  LEU26       0.1561
     86  C         32.3820   13.2790   35.6130 C.2    26  LEU26       0.2260
     87  O         32.2010   14.3450   34.9910 O.2    26  LEU26      -0.2867
     88  CB        33.1040   11.3060   34.2610 C.3    26  LEU26       0.0270
     89  CG        34.2410   10.5300   33.5670 C.3    26  LEU26       0.0019
     90  CD1       33.6660    9.4070   32.7610 C.3    26  LEU26       0.0001
     91  CD2       35.0570   11.4630   32.6650 C.3    26  LEU26       0.0001
     92  N         42.1730    6.5940   42.5510 N.3    94  LYS94      -0.1231
     93  CA        43.1740    5.8650   41.7460 C.3    94  LYS94       0.1693
     94  C         43.5480    6.4730   40.3950 C.2    94  LYS94       0.2592
     95  O         44.3330    5.8830   39.6400 O.2    94  LYS94      -0.2718
     96  CB        42.7990    4.3850   41.5820 C.3    94  LYS94       0.0285
     97  CG        41.6340    4.1130   40.6580 C.3    94  LYS94       0.0035
     98  CD        41.2130    2.6520   40.7570 C.3    94  LYS94       0.0206
     99  CE        39.9270    2.3840   39.9830 C.3    94  LYS94       0.1093
    100  NZ        38.7080    2.6860   40.8010 N.3    94  LYS94      -0.1314
    101  N         43.0350    7.6600   40.0980 N.am   95  TYR95      -0.1976
    102  CA        43.2060    8.2110   38.7600 C.3    95  TYR95       0.1639
    103  C         44.0930    9.4330   38.6600 C.2    95  TYR95       0.2290
    104  O         44.0230   10.3520   39.4940 O.2    95  TYR95      -0.2864
    105  CB        41.8590    8.5550   38.1300 C.3    95  TYR95       0.0560
    106  CG        41.0230    7.3560   37.7520 C.ar   95  TYR95      -0.0198
    107  CD1       41.3040    6.6260   36.6070 C.ar   95  TYR95      -0.0009
    108  CD2       39.9510    6.9520   38.5460 C.ar   95  TYR95      -0.0009
    109  CE1       40.5440    5.5290   36.2570 C.ar   95  TYR95       0.0417
    110  CE2       39.1940    5.8490   38.2040 C.ar   95  TYR95       0.0417
    111  CZ        39.5000    5.1410   37.0540 C.ar   95  TYR95       0.1957
    112  OH        38.7570    4.0450   36.6740 O.3    95  TYR95      -0.2866
    113  N         44.8020    5.5790   34.7600 N.3   122  ARG122     -0.1245
    114  CA        44.7590    4.7690   35.9730 C.3   122  ARG122      0.1563
    115  C         46.1680    4.6080   36.5160 C.2   122  ARG122      0.2260
    116  O         47.0860    4.2320   35.7740 O.2   122  ARG122     -0.2867
    117  CB        44.1530    3.3840   35.7100 C.3   122  ARG122      0.0307
    118  CG        43.6470    2.6710   36.9620 C.3   122  ARG122      0.0489
    119  CD        42.7210    1.5100   36.6010 C.3   122  ARG122      0.2205
    120  NE        41.3630    1.9650   36.2480 N.pl3 122  ARG122     -0.0865
    121  CZ        40.7140    1.6450   35.1200 C.cat 122  ARG122      0.5346
    122  NH1       41.2970    0.8630   34.2090 N.pl3 122  ARG122      0.1354
    123  NH2       39.4800    2.1100   34.8990 N.pl3 122  ARG122      0.1354
    124  N         36.2070    7.2220   24.9470 N.3   159  MET159     -0.1245
    125  CA        36.4570    6.0960   25.8380 C.3   159  MET159      0.1570
    126  C         36.6370    4.9070   24.9380 C.2   159  MET159      0.2261
    127  O         36.3690    5.0200   23.7500 O.2   159  MET159     -0.2867
    128  CB        35.2680    5.8550   26.7680 C.3   159  MET159      0.0387
    129  CG        35.0580    6.9770   27.8020 C.3   159  MET159      0.0595
    130  SD        34.2460    6.4370   29.3120 S.3   159  MET159     -0.1393
    131  CE        32.5700    6.2230   28.7030 C.3   159  MET159      0.0692
@<TRIPOS>BOND
     1   127   126    2
     2   126   125    1
     3   124   125    1
     4   125   128    1
     5    23    22   ar
     6   128   129    1
     7    22    24   ar
     8    22    21    1
     9   129   130    1
    10   131   130    1
    11    21    20    1
    12    20    17    1
    13    17    16    1
    14    17    18    1
    15     1     2    1
    16     7     5    1
    17    19    18    2
    18    18    25   am
    19     2     5    1
    20     2     3    1
    21     5     6    1
    22    91    89    1
    23    40    41    1
    24    90    89    1
    25    44    41    1
    26    41    42    1
    27     3     4    2
    28     3     8   am
    29    25    26    1
    30    89    88    1
    31    76    74    1
    32     8     9    1
    33    31    32    2
    34    31    30    1
    35   122   121    1
    36    10    11    2
    37    10     9    1
    38    88    85    1
    39    42    43    2
    40    26    27    1
    41    75    74    1
    42    74    73    1
    43    29    27   am
    44    29    30    1
    45   113   114    1
    46    27    28    2
    47     9    12    1
    48   123   121    1
    49    87    86    2
    50   121   120    2
    51    30    33    1
    52    85    86    1
    53    85    84    1
    54    33    34    1
    55    12    13    1
    56   117   114    1
    57   117   118    1
    58   116   115    2
    59   114   115    1
    60    73    70    1
    61    38    37    1
    62   120   119    1
    63   109   107   ar
    64   109   111   ar
    65    82    81    1
    66   119   118    1
    67    72    71    2
    68   107   106   ar
    69    34    35    1
    70   112   111    1
    71    35    36    1
    72    37    36    2
    73    37    39    1
    74    13    14    1
    75    45    46    1
    76    71    70    1
    77    71    77   am
    78   111   110   ar
    79    78    77    1
    80    78    81    1
    81    78    79    1
    82    70    69    1
    83    81    83    1
    84    80    79    2
    85    46    47    1
    86   106   105    1
    87   106   108   ar
    88   105   102    1
    89   110   108   ar
    90    14    15    1
    91    69    62   am
    92   103   102    1
    93   103   104    2
    94   102   101    1
    95    47    48    2
    96    47    49   am
    97    95    94    2
    98    62    63    2
    99    62    61    1
   100    49    50    1
   101    99    98    1
   102    99   100    1
   103   101    94   am
   104    59    58    2
   105    57    56    1
   106    57    58    1
   107    56    51   am
   108    58    60   am
   109    94    93    1
   110    60    61    1
   111    97    98    1
   112    97    96    1
   113    61    64    1
   114    50    51    1
   115    50    53    1
   116    51    52    2
   117    64    65    1
   118    96    93    1
   119    67    66   ar
   120    93    92    1
   121    54    53    1
   122    65    66    1
   123    55    53    1
   124    66    68   ar
