@<TRIPOS>MOLECULE
tmp/2jjpA01.pdb
 202 191 0 0 0
SMALL
GASTEIGER

@<TRIPOS>ATOM
      1  N         15.8940    6.1140  -18.3940 N.3    32  ASP32      -0.1239
      2  CA        15.3330    7.4140  -18.0550 C.3    32  ASP32       0.1674
      3  C         16.0310    8.5260  -18.8160 C.2    32  ASP32       0.2266
      4  O         16.9910    8.2590  -19.5350 O.2    32  ASP32      -0.2867
      5  CB        15.4010    7.6810  -16.5210 C.3    32  ASP32       0.1410
      6  CG        16.8310    7.8700  -15.9800 C.2    32  ASP32       0.3668
      7  OD1       17.8270    8.1560  -16.7180 O.co2  32  ASP32      -0.2456
      8  OD2       16.9510    7.7430  -14.7500 O.co2  32  ASP32      -0.2456
      9  N         20.2550    6.8070  -17.3900 N.3    36  VAL36      -0.1245
     10  CA        20.3250    5.8490  -16.2970 C.3    36  VAL36       0.1561
     11  C         19.2950    4.7720  -16.5000 C.2    36  VAL36       0.2260
     12  O         18.1340    5.0320  -16.7330 O.2    36  VAL36      -0.2867
     13  CB        20.1330    6.5360  -14.9340 C.3    36  VAL36       0.0252
     14  CG1       19.9080    5.5730  -13.8590 C.3    36  VAL36       0.0019
     15  CG2       21.3570    7.4350  -14.5930 C.3    36  VAL36       0.0019
     16  N         17.0970    1.2380  -15.5070 N.3    38  HIS38      -0.1241
     17  CA        16.3460    0.6930  -14.3870 C.3    38  HIS38       0.1621
     18  C         15.8120   -0.7230  -14.6370 C.2    38  HIS38       0.2264
     19  O         15.2630   -1.0210  -15.6850 O.2    38  HIS38      -0.2867
     20  CB        15.1830    1.6200  -13.9720 C.3    38  HIS38       0.0745
     21  CG        15.5830    3.0480  -13.7210 C.ar   38  HIS38       0.0817
     22  ND1       15.6540    3.6000  -12.4540 N.ar   38  HIS38      -0.2268
     23  CD2       15.9100    4.0370  -14.5740 C.ar   38  HIS38       0.1154
     24  CE1       15.9970    4.8660  -12.5430 C.ar   38  HIS38       0.1986
     25  NE2       16.1480    5.1660  -13.8180 N.ar   38  HIS38      -0.2212
     26  N         36.1660    1.5610    1.2170 N.3    72  MET72      -0.1230
     27  CA        34.7180    1.6610    0.9310 C.3    72  MET72       0.1702
     28  C         34.3090    0.3960    0.2430 C.2    72  MET72       0.2592
     29  O         34.1780    0.3400   -0.9820 O.2    72  MET72      -0.2718
     30  CB        34.3480    2.8590    0.0690 C.3    72  MET72       0.0401
     31  CG        34.5060    4.1920    0.7230 C.3    72  MET72       0.0596
     32  SD        33.9800    4.2090    2.4260 S.3    72  MET72      -0.1393
     33  CE        32.1990    4.3090    2.2810 C.3    72  MET72       0.0692
     34  N         34.1170   -0.6200    1.0570 N.am   73  ILE73      -0.1966
     35  CA        33.9440   -1.9760    0.5910 C.3    73  ILE73       0.1727
     36  C         32.7590   -2.1890   -0.3970 C.2    73  ILE73       0.2616
     37  O         32.7720   -3.1110   -1.2160 O.2    73  ILE73      -0.2715
     38  CB        33.9250   -2.9230    1.8340 C.3    73  ILE73       0.0290
     39  CG1       34.1100   -4.3780    1.4460 C.3    73  ILE73       0.0022
     40  CG2       32.6890   -2.6480    2.7220 C.3    73  ILE73       0.0023
     41  CD1       34.1070   -5.3070    2.6620 C.3    73  ILE73       0.0001
     42  N         31.7680   -1.3090   -0.3370 N.am   74  HIS74      -0.1973
     43  CA        30.6070   -1.3650   -1.2140 C.3    74  HIS74       0.1656
     44  C         30.8450   -0.6730   -2.5730 C.2    74  HIS74       0.2291
     45  O         29.9810   -0.6370   -3.4400 O.2    74  HIS74      -0.2864
     46  CB        29.4080   -0.7470   -0.4980 C.3    74  HIS74       0.0771
     47  CG        29.4180    0.7480   -0.4470 C.ar   74  HIS74       0.0820
     48  ND1       30.2580    1.4720    0.3770 N.ar   74  HIS74      -0.2267
     49  CD2       28.6490    1.6610   -1.0860 C.ar   74  HIS74       0.1154
     50  CE1       30.0130    2.7580    0.2340 C.ar   74  HIS74       0.1986
     51  NE2       29.0440    2.9010   -0.6500 N.ar   74  HIS74      -0.2212
     52  N         23.2730   14.0480    4.1670 N.3   155  LEU155     -0.1245
     53  CA        23.7350   13.0430    3.2230 C.3   155  LEU155      0.1561
     54  C         22.5790   12.5490    2.3450 C.2   155  LEU155      0.2260
     55  O         22.7040   12.5440    1.1260 O.2   155  LEU155     -0.2867
     56  CB        24.4090   11.8870    3.9860 C.3   155  LEU155      0.0270
     57  CG        25.5340   11.0140    3.4100 C.3   155  LEU155      0.0019
     58  CD1       25.0070   10.0150    2.3530 C.3   155  LEU155      0.0001
     59  CD2       26.7080   11.8360    2.8700 C.3   155  LEU155      0.0001
     60  N         20.4690   16.6050   -5.3400 N.3   160  MET160     -0.1230
     61  CA        20.6420   15.5670   -6.3450 C.3   160  MET160      0.1702
     62  C         19.3890   15.3140   -7.1760 C.2   160  MET160      0.2592
     63  O         18.2820   15.2490   -6.6290 O.2   160  MET160     -0.2718
     64  CB        21.0830   14.2750   -5.6530 C.3   160  MET160      0.0401
     65  CG        21.4160   13.1320   -6.5750 C.3   160  MET160      0.0596
     66  SD        19.9640   12.1570   -6.9820 S.3   160  MET160     -0.1393
     67  CE        20.5400   11.4210   -8.4910 C.3   160  MET160      0.0692
     68  N         19.5780   15.1710   -8.4950 N.am  161  ASP161     -0.1974
     69  CA        18.5670   14.5620   -9.3860 C.3   161  ASP161      0.1709
     70  C         19.1800   13.6980  -10.5160 C.2   161  ASP161      0.2293
     71  O         18.7360   12.5750  -10.7750 O.2   161  ASP161     -0.2864
     72  CB        17.6230   15.6220   -9.9640 C.3   161  ASP161      0.1436
     73  CG        16.2890   15.0330  -10.4220 C.2   161  ASP161      0.3671
     74  OD1       15.9760   13.8730  -10.0570 O.co2 161  ASP161     -0.2456
     75  OD2       15.5500   15.7420  -11.1410 O.co2 161  ASP161     -0.2456
     76  N         22.1090   11.4990  -11.5350 N.3   163  PRO163     -0.2116
     77  CA        23.2520   10.8060  -10.9060 C.3   163  PRO163      0.1372
     78  C         24.5450   10.8300  -11.7260 C.2   163  PRO163      0.2244
     79  O         25.6090   10.4790  -11.2140 O.2   163  PRO163     -0.2868
     80  CB        22.7530    9.3590  -10.7200 C.3   163  PRO163      0.0268
     81  CG        21.2770    9.4070  -10.9560 C.3   163  PRO163      0.0207
     82  CD        21.0420   10.5560  -11.9080 C.3   163  PRO163      0.0892
     83  N         36.1920    2.7640    6.3160 N.3   220  PHE220     -0.1241
     84  CA        35.2420    1.6950    6.6150 C.3   220  PHE220      0.1605
     85  C         34.4970    1.9330    7.9360 C.2   220  PHE220      0.2264
     86  O         33.3150    1.6500    8.0170 O.2   220  PHE220     -0.2867
     87  CB        35.9170    0.3250    6.6170 C.3   220  PHE220      0.0534
     88  CG        34.9730   -0.8150    6.9410 C.ar  220  PHE220     -0.0203
     89  CD1       34.0500   -1.2570    5.9950 C.ar  220  PHE220     -0.0042
     90  CD2       35.0160   -1.4490    8.1800 C.ar  220  PHE220     -0.0042
     91  CE1       33.1630   -2.3260    6.2820 C.ar  220  PHE220     -0.0003
     92  CE2       34.1460   -2.5080    8.4870 C.ar  220  PHE220     -0.0003
     93  CZ        33.2130   -2.9440    7.5260 C.ar  220  PHE220     -0.0000
     94  N         31.6030    4.4450    7.0900 N.3   223  ALA223     -0.1231
     95  CA        30.4880    3.6680    6.5350 C.3   223  ALA223      0.1694
     96  C         29.6550    2.9920    7.6090 C.2   223  ALA223      0.2591
     97  O         28.4480    3.1500    7.6230 O.2   223  ALA223     -0.2718
     98  CB        30.9940    2.6320    5.4700 C.3   223  ALA223      0.0304
     99  N         30.2960    2.2560    8.5150 N.am  224  LEU224     -0.1980
    100  CA        29.6190    1.6230    9.6680 C.3   224  LEU224      0.1596
    101  C         28.8090    2.5960   10.5270 C.2   224  LEU224      0.2287
    102  O         27.6760    2.2800   10.9300 O.2   224  LEU224     -0.2864
    103  CB        30.6470    0.9350   10.5630 C.3   224  LEU224      0.0297
    104  CG        30.9220   -0.5630   10.4030 C.3   224  LEU224      0.0022
    105  CD1       30.4330   -1.2140    9.0730 C.3   224  LEU224      0.0001
    106  CD2       32.3740   -0.8130   10.6790 C.3   224  LEU224      0.0001
    107  N         27.6890    5.6850    9.5960 N.3   226  LEU226     -0.1231
    108  CA        26.6000    6.0530    8.6940 C.3   226  LEU226      0.1693
    109  C         25.4890    4.9830    8.7020 C.2   226  LEU226      0.2591
    110  O         24.3260    5.2930    8.8880 O.2   226  LEU226     -0.2718
    111  CB        27.1830    6.2600    7.2810 C.3   226  LEU226      0.0284
    112  CG        28.1110    7.4710    7.1190 C.3   226  LEU226      0.0019
    113  CD1       29.0240    7.3220    5.9080 C.3   226  LEU226      0.0001
    114  CD2       27.3100    8.7810    7.0340 C.3   226  LEU226      0.0001
    115  N         25.8460    3.7150    8.5080 N.am  227  ALA227     -0.1980
    116  CA        24.8740    2.6080    8.5870 C.3   227  ALA227      0.1597
    117  C         24.0800    2.6860    9.8710 C.2   227  ALA227      0.2287
    118  O         22.8500    2.6040    9.8600 O.2   227  ALA227     -0.2864
    119  CB        25.5900    1.2400    8.4800 C.3   227  ALA227      0.0319
    120  N         21.2830    5.5590   10.0500 N.3   230  ILE230     -0.1231
    121  CA        20.2220    5.5770    9.0370 C.3   230  ILE230      0.1692
    122  C         19.3260    4.3120    8.9750 C.2   230  ILE230      0.2592
    123  O         18.0960    4.4200    9.0260 O.2   230  ILE230     -0.2718
    124  CB        20.7830    6.0290    7.6320 C.3   230  ILE230      0.0266
    125  CG1       20.0630    7.3030    7.1590 C.3   230  ILE230      0.0019
    126  CG2       20.7410    4.9130    6.5970 C.3   230  ILE230      0.0020
    127  CD1       18.4890    7.3320    7.4020 C.3   230  ILE230      0.0001
    128  N         19.9420    3.1330    8.9770 N.am  231  THR231     -0.1953
    129  CA        19.2710    1.8610    8.6520 C.3   231  THR231      0.1897
    130  C         18.1780    1.4090    9.6170 C.2   231  THR231      0.2313
    131  O         17.0320    1.2710    9.2230 O.2   231  THR231     -0.2863
    132  CB        20.3110    0.7450    8.5180 C.3   231  THR231      0.1794
    133  OG1       21.0850    0.7100    9.7160 O.3   231  THR231     -0.2208
    134  CG2       21.2250    1.0430    7.3810 C.3   231  THR231      0.0378
    135  N         16.1700    0.4580    1.7790 N.3   274  PHE274     -0.1241
    136  CA        16.8080    0.8130    0.5170 C.3   274  PHE274      0.1605
    137  C         16.1560    0.1750   -0.7020 C.2   274  PHE274      0.2264
    138  O         16.4590   -0.9750   -1.0380 O.2   274  PHE274     -0.2867
    139  CB        18.3120    0.4990    0.5580 C.3   274  PHE274      0.0534
    140  CG        19.0500    1.2270    1.6700 C.ar  274  PHE274     -0.0203
    141  CD1       19.5430    0.5190    2.7850 C.ar  274  PHE274     -0.0042
    142  CD2       19.2350    2.5840    1.6100 C.ar  274  PHE274     -0.0042
    143  CE1       20.2040    1.1640    3.8270 C.ar  274  PHE274     -0.0003
    144  CE2       19.9220    3.2560    2.6390 C.ar  274  PHE274     -0.0003
    145  CZ        20.3910    2.5420    3.7570 C.ar  274  PHE274     -0.0000
    146  N         16.4570    0.8320   -3.9560 N.3   276  GLN276     -0.1231
    147  CA        17.2550    0.7620   -5.1790 C.3   276  GLN276      0.1698
    148  C         18.6990    0.6720   -4.8060 C.2   276  GLN276      0.2592
    149  O         19.1460    1.3650   -3.8770 O.2   276  GLN276     -0.2718
    150  CB        17.1370    2.0430   -6.0250 C.3   276  GLN276      0.0381
    151  CG        15.7810    2.5860   -6.1820 C.3   276  GLN276      0.0905
    152  CD        15.8320    3.9970   -6.7080 C.2   276  GLN276      0.2608
    153  OE1       15.6020    4.9470   -5.9640 O.2   276  GLN276     -0.2717
    154  NE2       16.1780    4.1450   -7.9870 N.am  276  GLN276     -0.0878
    155  N         19.4280   -0.1690   -5.5410 N.am  277  MET277     -0.1965
    156  CA        20.9000   -0.2690   -5.5060 C.3   277  MET277      0.1736
    157  C         21.4210    0.1110   -6.8720 C.2   277  MET277      0.2616
    158  O         20.6660    0.1230   -7.8170 O.2   277  MET277     -0.2715
    159  CB        21.3390   -1.6970   -5.1560 C.3   277  MET277      0.0427
    160  CG        21.0410   -2.1070   -3.7360 C.3   277  MET277      0.0599
    161  SD        20.3450   -3.7530   -3.7110 S.3   277  MET277     -0.1393
    162  CE        19.2420   -3.5300   -2.3120 C.3   277  MET277      0.0692
    163  N         22.6970    0.4680   -6.9700 N.am  278  GLN278     -0.1977
    164  CA        23.2470    1.0460   -8.1980 C.3   278  GLN278      0.1601
    165  C         24.4940    0.3040   -8.6480 C.2   278  GLN278      0.2287
    166  O         25.3430   -0.0630   -7.8120 O.2   278  GLN278     -0.2864
    167  CB        23.6560    2.4870   -7.9730 C.3   278  GLN278      0.0394
    168  CG        22.5440    3.4900   -7.6480 C.3   278  GLN278      0.0908
    169  CD        23.0560    4.9400   -7.7590 C.2   278  GLN278      0.2608
    170  OE1       22.3210    5.8380   -8.1790 O.2   278  GLN278     -0.2717
    171  NE2       24.3300    5.1620   -7.4070 N.am  278  GLN278     -0.0878
    172  N         20.1620    1.0180  -12.1230 N.3   299  ASN299     -0.1240
    173  CA        19.5140    0.9720  -10.8210 C.3   299  ASN299      0.1653
    174  C         18.7070   -0.2700  -10.7050 C.2   299  ASN299      0.2266
    175  O         17.8420   -0.5260  -11.5610 O.2   299  ASN299     -0.2867
    176  CB        18.5750    2.1530  -10.6450 C.3   299  ASN299      0.1155
    177  CG        19.3160    3.4310  -10.4520 C.2   299  ASN299      0.2627
    178  OD1       18.7220    4.4860  -10.2450 O.2   299  ASN299     -0.2716
    179  ND2       20.6490    3.3480  -10.5040 N.am  299  ASN299     -0.0877
    180  N         24.7090   -7.6230    2.6370 N.3   339  CYS339     -0.1235
    181  CA        24.8460   -6.8450    3.8610 C.3   339  CYS339      0.1677
    182  C         25.6560   -7.4730    4.9700 C.2   339  CYS339      0.2270
    183  O         25.2670   -8.5050    5.5350 O.2   339  CYS339     -0.2867
    184  CB        23.4950   -6.3960    4.3850 C.3   339  CYS339      0.0956
    185  SG        23.6570   -5.1390    5.6380 S.3   339  CYS339     -0.0801
    186  N         13.7460   10.7920   -1.4910 N.3   377  GLN377     -0.1231
    187  CA        14.6550   10.1370   -2.4270 C.3   377  GLN377      0.1698
    188  C         15.3180    8.8220   -2.0570 C.2   377  GLN377      0.2592
    189  O         14.9980    7.8110   -2.6750 O.2   377  GLN377     -0.2718
    190  CB        15.6840   11.1140   -3.0400 C.3   377  GLN377      0.0381
    191  CG        16.2950   12.0770   -2.0460 C.3   377  GLN377      0.0905
    192  CD        17.2190   13.1100   -2.6820 C.2   377  GLN377      0.2608
    193  OE1       17.6320   14.0650   -2.0100 O.2   377  GLN377     -0.2717
    194  NE2       17.5480   12.9290   -3.9730 N.am  377  GLN377     -0.0878
    195  N         16.2730    8.7770   -1.1370 N.am  378  ILE378     -0.1980
    196  CA        17.2140    7.6040   -1.1870 C.3   378  ILE378      0.1595
    197  C         16.6710    6.3530   -0.4980 C.2   378  ILE378      0.2287
    198  O         16.8870    5.2140   -0.9120 O.2   378  ILE378     -0.2864
    199  CB        18.5720    7.9490   -0.5130 C.3   378  ILE378      0.0276
    200  CG1       19.3040    9.1060   -1.2430 C.3   378  ILE378      0.0022
    201  CG2       19.4650    6.6590   -0.2880 C.3   378  ILE378      0.0022
    202  CD1       19.4570    8.9300   -2.7470 C.3   378  ILE378      0.0001
@<TRIPOS>BOND
     1     4     3    2
     2     3     2    1
     3     1     2    1
     4     2     5    1
     5     9    10    1
     6    12    11    2
     7     7     6   ar
     8     5     6    1
     9    11    10    1
    10    10    13    1
    11     6     8   ar
    12    19    18    2
    13    16    17    1
    14    13    15    1
    15    13    14    1
    16    18    17    1
    17    23    25   ar
    18    23    21   ar
    19    17    20    1
    20    20    21    1
    21    25    24   ar
    22    21    22   ar
    23    24    22   ar
    24   172   173    1
    25    82    76    1
    26    82    81    1
    27    78    79    2
    28    78    77    1
    29   175   174    2
    30    76    77    1
    31    75    73   ar
    32    81    80    1
    33    77    80    1
    34   173   174    1
    35   173   176    1
    36    71    70    2
    37   176   177    1
    38    70    69    1
    39   179   177   am
    40   177   178    2
    41    73    74   ar
    42    73    72    1
    43    72    69    1
    44    69    68    1
    45   165   164    1
    46   165   166    2
    47    68    62   am
    48    67    66    1
    49   164   167    1
    50   164   163    1
    51   170   169    2
    52   154   152   am
    53   167   168    1
    54   158   157    2
    55   169   168    1
    56   169   171   am
    57    62    63    2
    58    62    61    1
    59    66    65    1
    60   163   157   am
    61   157   156    1
    62   152   151    1
    63   152   153    2
    64    65    64    1
    65    61    64    1
    66    61    60    1
    67   151   150    1
    68   150   147    1
    69   155   156    1
    70   155   148   am
    71   156   159    1
    72   147   148    1
    73   147   146    1
    74   159   160    1
    75   148   149    2
    76   194   192   am
    77   160   161    1
    78   161   162    1
    79    45    44    2
    80   190   187    1
    81   190   191    1
    82   202   200    1
    83   192   191    1
    84   192   193    2
    85   189   188    2
    86    44    43    1
    87   187   188    1
    88   187   186    1
    89   188   195   am
    90   200   199    1
    91    37    36    2
    92    43    46    1
    93    43    42    1
    94   196   195    1
    95   196   199    1
    96   196   197    1
    97    49    51   ar
    98    49    47   ar
    99   138   137    2
   100    29    28    2
   101   198   197    2
   102   137   136    1
   103    51    50   ar
   104   199   201    1
   105    46    47    1
   106    47    48   ar
   107    36    42   am
   108    36    35    1
   109    30    31    1
   110    30    27    1
   111    50    48   ar
   112    28    27    1
   113    28    34   am
   114   136   139    1
   115   136   135    1
   116   139   140    1
   117    35    34    1
   118    35    38    1
   119    31    32    1
   120    27    26    1
   121    55    54    2
   122    39    38    1
   123    39    41    1
   124   142   140   ar
   125   142   144   ar
   126   140   141   ar
   127    38    40    1
   128    33    32    1
   129    54    53    1
   130    58    57    1
   131   180   181    1
   132   144   145   ar
   133   141   143   ar
   134    59    57    1
   135    53    56    1
   136    53    52    1
   137    57    56    1
   138   145   143   ar
   139   181   184    1
   140   181   182    1
   141   184   185    1
   142   182   183    2
   143    98    95    1
   144   113   112    1
   145    89    91   ar
   146    89    88   ar
   147    91    93   ar
   148    83    84    1
   149    95    94    1
   150    95    96    1
   151   126   124    1
   152    84    87    1
   153    84    85    1
   154    87    88    1
   155    88    90   ar
   156   114   112    1
   157   112   111    1
   158   125   127    1
   159   125   124    1
   160   111   108    1
   161   134   132    1
   162    93    92   ar
   163    96    97    2
   164    96    99   am
   165   124   121    1
   166    85    86    2
   167    90    92   ar
   168   119   116    1
   169   115   116    1
   170   115   109   am
   171    99   100    1
   172   132   129    1
   173   132   133    1
   174   116   117    1
   175   129   128    1
   176   129   130    1
   177   108   109    1
   178   108   107    1
   179   109   110    2
   180   122   128   am
   181   122   123    2
   182   122   121    1
   183   121   120    1
   184   105   104    1
   185   131   130    2
   186   100   101    1
   187   100   103    1
   188   118   117    2
   189   104   103    1
   190   104   106    1
   191   101   102    2
