@<TRIPOS>MOLECULE
tmp/2jjrA04.pdb
 83 79 0 0 0
SMALL
GASTEIGER

@<TRIPOS>ATOM
      1  N         24.1360  -23.5580  -13.0710 N.3    27  ASN27      -0.1225
      2  CA        23.6850  -23.6490  -14.4470 C.3    27  ASN27       0.1785
      3  C         22.1850  -23.8620  -14.4150 C.2    27  ASN27       0.2597
      4  O         21.6850  -24.5890  -13.5460 O.2    27  ASN27      -0.2718
      5  CB        24.3310  -24.8390  -15.1660 C.3    27  ASN27       0.1169
      6  CG        23.9610  -26.1760  -14.5490 C.2    27  ASN27       0.2627
      7  OD1       24.4230  -26.5190  -13.4590 O.2    27  ASN27      -0.2716
      8  ND2       23.1460  -26.9560  -15.2620 N.am   27  ASN27      -0.0877
      9  N         21.4740  -23.2520  -15.3550 N.am   28  GLU28      -0.1965
     10  CA        20.0380  -23.5610  -15.5280 C.3    28  GLU28       0.1733
     11  C         19.7380  -24.5730  -16.6470 C.2    28  GLU28       0.2616
     12  O         18.7210  -25.2830  -16.5860 O.2    28  GLU28      -0.2715
     13  CB        19.2160  -22.2750  -15.6880 C.3    28  GLU28       0.0429
     14  CG        18.6350  -21.7960  -14.3420 C.3    28  GLU28       0.1163
     15  CD        18.4900  -20.2870  -14.2450 C.2    28  GLU28       0.3649
     16  OE1       19.4750  -19.5650  -14.5680 O.co2  28  GLU28      -0.2457
     17  OE2       17.3920  -19.8300  -13.8260 O.co2  28  GLU28      -0.2457
     18  N         20.6250  -24.6560  -17.6390 N.am   29  ARG29      -0.1977
     19  CA        20.4520  -25.5680  -18.7710 C.3    29  ARG29       0.1597
     20  C         21.6160  -26.5380  -18.8910 C.2    29  ARG29       0.2287
     21  O         22.7240  -26.2220  -18.4860 O.2    29  ARG29      -0.2864
     22  CB        20.4070  -24.7840  -20.0840 C.3    29  ARG29       0.0334
     23  CG        19.2700  -23.7950  -20.2510 C.3    29  ARG29       0.0492
     24  CD        18.9690  -23.6050  -21.7590 C.3    29  ARG29       0.2205
     25  NE        19.7680  -22.5430  -22.3600 N.pl3  29  ARG29      -0.0865
     26  CZ        20.2150  -22.5210  -23.6200 C.cat  29  ARG29       0.5346
     27  NH1       19.9710  -23.5270  -24.4670 N.pl3  29  ARG29       0.1354
     28  NH2       20.9300  -21.4780  -24.0410 N.pl3  29  ARG29       0.1354
     29  N         25.5530  -25.7420  -18.9720 N.3    36  LEU36      -0.1231
     30  CA        25.7580  -24.4290  -19.5660 C.3    36  LEU36       0.1693
     31  C         25.8780  -23.4360  -18.4230 C.2    36  LEU36       0.2592
     32  O         24.9520  -23.2730  -17.6450 O.2    36  LEU36      -0.2718
     33  CB        24.5860  -24.0330  -20.4760 C.3    36  LEU36       0.0284
     34  CG        24.6540  -22.6230  -21.1120 C.3    36  LEU36       0.0019
     35  CD1       25.9240  -22.3850  -21.9310 C.3    36  LEU36       0.0001
     36  CD2       23.4180  -22.3010  -21.9740 C.3    36  LEU36       0.0001
     37  N         27.0140  -22.7690  -18.3230 N.am   37  LEU37      -0.1966
     38  CA        27.2630  -21.9050  -17.1950 C.3    37  LEU37       0.1728
     39  C         26.4230  -20.6510  -17.3360 C.2    37  LEU37       0.2616
     40  O         25.9170  -20.3460  -18.4280 O.2    37  LEU37      -0.2715
     41  CB        28.7570  -21.5820  -17.0890 C.3    37  LEU37       0.0311
     42  CG        29.6560  -22.8030  -16.8310 C.3    37  LEU37       0.0022
     43  CD1       31.1560  -22.4450  -16.8950 C.3    37  LEU37       0.0001
     44  CD2       29.3210  -23.4840  -15.4990 C.3    37  LEU37       0.0001
     45  N         26.2460  -19.9510  -16.2190 N.am   38  ARG38      -0.1963
     46  CA        25.4990  -18.7090  -16.2070 C.3    38  ARG38       0.1729
     47  C         26.3070  -17.6010  -16.8610 C.2    38  ARG38       0.2617
     48  O         27.5400  -17.5650  -16.8280 O.2    38  ARG38      -0.2715
     49  CB        25.0610  -18.3160  -14.7860 C.3    38  ARG38       0.0348
     50  CG        24.0350  -19.2820  -14.1580 C.3    38  ARG38       0.0492
     51  CD        22.5780  -18.9900  -14.5610 C.3    38  ARG38       0.2205
     52  NE        21.7610  -18.4960  -13.4420 N.pl3  38  ARG38      -0.0865
     53  CZ        21.6360  -17.2200  -13.0670 C.cat  38  ARG38       0.5346
     54  NH1       20.8820  -16.9210  -12.0160 N.pl3  38  ARG38       0.1354
     55  NH2       22.2530  -16.2340  -13.7150 N.pl3  38  ARG38       0.1354
     56  N         25.5740  -16.6820  -17.4560 N.am   39  SER39      -0.1936
     57  CA        26.1440  -15.6390  -18.2670 C.3    39  SER39       0.2055
     58  C         26.6840  -14.5090  -17.3840 C.2    39  SER39       0.2643
     59  O         27.7100  -13.9160  -17.6860 O.2    39  SER39      -0.2714
     60  CB        25.0920  -15.1500  -19.2550 C.3    39  SER39       0.2130
     61  OG        25.2700  -13.7930  -19.5180 O.3    39  SER39      -0.2179
     62  N         25.9810  -14.2150  -16.2970 N.am   40  SER40      -0.1949
     63  CA        26.4820  -13.3050  -15.2730 C.3    40  SER40       0.1924
     64  C         25.7660  -13.5830  -13.9510 C.2    40  SER40       0.2314
     65  O         24.7080  -14.2330  -13.9220 O.2    40  SER40      -0.2863
     66  CB        26.3140  -11.8410  -15.6910 C.3    40  SER40       0.2116
     67  OG        24.9590  -11.4440  -15.6460 O.3    40  SER40      -0.2180
     68  N         29.1210  -19.6510  -21.2720 N.3   242  ASN242     -0.1240
     69  CA        27.9190  -19.1110  -21.8870 C.3   242  ASN242      0.1653
     70  C         28.2900  -18.1310  -23.0060 C.2   242  ASN242      0.2266
     71  O         29.1900  -17.3020  -22.8510 O.2   242  ASN242     -0.2867
     72  CB        27.0320  -18.4500  -20.8360 C.3   242  ASN242      0.1155
     73  CG        25.6210  -18.1860  -21.3350 C.2   242  ASN242      0.2627
     74  OD1       25.4120  -17.3930  -22.2550 O.2   242  ASN242     -0.2716
     75  ND2       24.6410  -18.8360  -20.7100 N.am  242  ASN242     -0.0877
     76  N         26.9330  -15.5380  -23.9680 N.3   244  ASN244     -0.1240
     77  CA        26.8110  -14.1470  -23.5150 C.3   244  ASN244      0.1653
     78  C         27.8870  -13.7110  -22.5030 C.2   244  ASN244      0.2266
     79  O         27.8090  -12.6150  -21.9440 O.2   244  ASN244     -0.2867
     80  CB        25.4080  -13.9220  -22.9590 C.3   244  ASN244      0.1155
     81  CG        24.3280  -14.0760  -24.0370 C.2   244  ASN244      0.2627
     82  OD1       23.2240  -14.5580  -23.7700 O.2   244  ASN244     -0.2716
     83  ND2       24.6580  -13.6880  -25.2620 N.am  244  ASN244     -0.0877
@<TRIPOS>BOND
     1    83    81   am
     2    27    26    1
     3    28    26    1
     4    81    82    2
     5    81    80    1
     6    76    77    1
     7    26    25    2
     8    77    80    1
     9    77    78    1
    10    70    71    2
    11    70    69    1
    12    78    79    2
    13    25    24    1
    14    74    73    2
    15    36    34    1
    16    35    34    1
    17    69    68    1
    18    69    72    1
    19    24    23    1
    20    73    72    1
    21    73    75   am
    22    34    33    1
    23    33    30    1
    24    23    22    1
    25    22    19    1
    26    30    29    1
    27    30    31    1
    28    61    60    1
    29    60    57    1
    30    20    19    1
    31    20    21    2
    32    19    18    1
    33    40    39    2
    34    31    37   am
    35    31    32    2
    36    37    38    1
    37    57    56    1
    38    57    58    1
    39    59    58    2
    40    18    11   am
    41    56    47   am
    42    58    62   am
    43    39    38    1
    44    39    45   am
    45    38    41    1
    46    41    42    1
    47    43    42    1
    48    47    48    2
    49    47    46    1
    50    42    44    1
    51    11    12    2
    52    11    10    1
    53    62    63    1
    54    45    46    1
    55    46    49    1
    56    66    67    1
    57    66    63    1
    58    13    10    1
    59    13    14    1
    60    10     9    1
    61     9     3   am
    62    63    64    1
    63     8     6   am
    64     5     6    1
    65     5     2    1
    66    49    50    1
    67    16    15   ar
    68    51    50    1
    69    51    52    1
    70     6     7    2
    71     2     3    1
    72     2     1    1
    73     3     4    2
    74    14    15    1
    75    15    17   ar
    76    64    65    2
    77    55    53    1
    78    52    53    2
    79    53    54    1
