@<TRIPOS>MOLECULE
tmp/2jjrA00.pdb
 87 79 0 0 0
SMALL
GASTEIGER

@<TRIPOS>ATOM
      1  N         38.8150  -35.5030  -20.2220 N.3   166  PHE166     -0.1241
      2  CA        40.0640  -36.1300  -20.6280 C.3   166  PHE166      0.1605
      3  C         41.2210  -35.6220  -19.7700 C.2   166  PHE166      0.2264
      4  O         42.0510  -36.4030  -19.3260 O.2   166  PHE166     -0.2867
      5  CB        40.3470  -35.9010  -22.1060 C.3   166  PHE166      0.0534
      6  CG        41.6300  -36.5440  -22.5740 C.ar  166  PHE166     -0.0203
      7  CD1       41.7250  -37.9230  -22.6970 C.ar  166  PHE166     -0.0042
      8  CD2       42.7360  -35.7710  -22.8670 C.ar  166  PHE166     -0.0042
      9  CE1       42.9170  -38.5250  -23.1270 C.ar  166  PHE166     -0.0003
     10  CE2       43.9310  -36.3540  -23.2980 C.ar  166  PHE166     -0.0003
     11  CZ        44.0260  -37.7340  -23.4150 C.ar  166  PHE166     -0.0000
     12  N         47.5590  -31.9400  -27.6790 N.3   184  ALA184     -0.1245
     13  CA        46.1180  -32.1840  -27.6700 C.3   184  ALA184      0.1562
     14  C         45.4200  -31.6080  -26.4240 C.2   184  ALA184      0.2260
     15  O         44.3620  -30.9800  -26.5380 O.2   184  ALA184     -0.2867
     16  CB        45.8270  -33.6600  -27.8060 C.3   184  ALA184      0.0290
     17  N         42.8480  -28.3140  -26.3170 N.3   188  LEU188     -0.1245
     18  CA        41.5780  -28.3010  -25.5830 C.3   188  LEU188      0.1561
     19  C         41.4590  -27.0800  -24.6760 C.2   188  LEU188      0.2260
     20  O         40.4420  -26.3910  -24.6910 O.2   188  LEU188     -0.2867
     21  CB        41.3900  -29.5560  -24.7460 C.3   188  LEU188      0.0270
     22  CG        41.0790  -30.8190  -25.5250 C.3   188  LEU188      0.0019
     23  CD1       41.1680  -31.9970  -24.5780 C.3   188  LEU188      0.0001
     24  CD2       39.7130  -30.7320  -26.2170 C.3   188  LEU188      0.0001
     25  N         41.5510  -28.3710  -33.6060 N.3   215  LEU215     -0.1231
     26  CA        42.2000  -28.9380  -32.4410 C.3   215  LEU215      0.1693
     27  C         43.4130  -29.7590  -32.8980 C.2   215  LEU215      0.2592
     28  O         43.6710  -29.8780  -34.1020 O.2   215  LEU215     -0.2718
     29  CB        41.2100  -29.8210  -31.6730 C.3   215  LEU215      0.0284
     30  CG        39.9720  -29.1110  -31.1020 C.3   215  LEU215      0.0019
     31  CD1       39.0660  -30.0940  -30.3980 C.3   215  LEU215      0.0001
     32  CD2       40.3410  -27.9640  -30.1560 C.3   215  LEU215      0.0001
     33  N         44.1560  -30.2890  -31.9210 N.am  216  ILE216     -0.1966
     34  CA        45.2820  -31.2020  -32.1570 C.3   216  ILE216      0.1727
     35  C         44.8580  -32.5550  -31.6020 C.2   216  ILE216      0.2616
     36  O         44.2850  -32.6330  -30.5050 O.2   216  ILE216     -0.2715
     37  CB        46.5920  -30.6860  -31.4640 C.3   216  ILE216      0.0290
     38  CG1       46.9440  -29.2540  -31.9180 C.3   216  ILE216      0.0022
     39  CG2       47.7780  -31.6170  -31.7010 C.3   216  ILE216      0.0023
     40  CD1       47.2340  -29.1030  -33.3940 C.3   216  ILE216      0.0001
     41  N         45.0890  -33.6300  -32.3580 N.am  217  ASN217     -0.1958
     42  CA        44.7540  -34.9580  -31.8520 C.3   217  ASN217      0.1819
     43  C         45.9150  -35.6040  -31.0970 C.2   217  ASN217      0.2621
     44  O         46.9920  -35.0140  -30.9620 O.2   217  ASN217     -0.2715
     45  CB        44.1950  -35.8810  -32.9560 C.3   217  ASN217      0.1195
     46  CG        45.2100  -36.2170  -34.0400 C.2   217  ASN217      0.2630
     47  OD1       46.3980  -35.8930  -33.9470 O.2   217  ASN217     -0.2716
     48  ND2       44.7300  -36.8600  -35.0840 N.am  217  ASN217     -0.0877
     49  N         45.6630  -36.8080  -30.5890 N.am  218  ALA218     -0.1977
     50  CA        46.6640  -37.6120  -29.8730 C.3   218  ALA218      0.1597
     51  C         47.8930  -37.9690  -30.7130 C.2   218  ALA218      0.2287
     52  O         48.9070  -38.4150  -30.1710 O.2   218  ALA218     -0.2864
     53  CB        46.0200  -38.8920  -29.3500 C.3   218  ALA218      0.0319
     54  N         43.1940  -31.1900  -36.5710 N.3   223  VAL223     -0.1245
     55  CA        41.9030  -31.7330  -36.9680 C.3   223  VAL223      0.1561
     56  C         40.8390  -30.6390  -36.9190 C.2   223  VAL223      0.2260
     57  O         40.8640  -29.7510  -36.0830 O.2   223  VAL223     -0.2867
     58  CB        41.4710  -32.9760  -36.1250 C.3   223  VAL223      0.0252
     59  CG1       42.4640  -34.1220  -36.3180 C.3   223  VAL223      0.0019
     60  CG2       41.3570  -32.6590  -34.6620 C.3   223  VAL223      0.0019
     61  N         37.0830  -29.6190  -36.3620 N.3   225  ILE225     -0.1245
     62  CA        35.8760  -30.0650  -35.6770 C.3   225  ILE225      0.1561
     63  C         34.7300  -29.1620  -36.0990 C.2   225  ILE225      0.2260
     64  O         34.7980  -27.9690  -35.9190 O.2   225  ILE225     -0.2867
     65  CB        36.0670  -30.0360  -34.1320 C.3   225  ILE225      0.0252
     66  CG1       37.3280  -30.8270  -33.7370 C.3   225  ILE225      0.0019
     67  CG2       34.8210  -30.5730  -33.3980 C.3   225  ILE225      0.0019
     68  CD1       37.3000  -32.3240  -34.0410 C.3   225  ILE225      0.0001
     69  N         35.0940  -36.2800  -33.4230 N.3   231  GLY231     -0.1225
     70  CA        36.1050  -36.6190  -32.4200 C.3   231  GLY231      0.1811
     71  C         35.5640  -36.8950  -31.0250 C.2   231  GLY231      0.2280
     72  O         36.3010  -36.7930  -30.0510 O.2   231  GLY231     -0.2866
     73  N         33.9760  -35.0470  -29.1620 N.3   233  VAL233     -0.1245
     74  CA        34.3700  -33.8930  -28.3410 C.3   233  VAL233      0.1561
     75  C         33.3010  -33.4930  -27.3100 C.2   233  VAL233      0.2260
     76  O         33.6430  -32.9760  -26.2490 O.2   233  VAL233     -0.2867
     77  CB        34.8420  -32.6830  -29.2300 C.3   233  VAL233      0.0252
     78  CG1       34.8620  -31.3760  -28.4720 C.3   233  VAL233      0.0019
     79  CG2       36.2380  -32.9610  -29.7930 C.3   233  VAL233      0.0019
     80  N         33.8340  -35.1470  -24.0610 N.3   236  ASP236     -0.1239
     81  CA        35.0450  -34.7150  -23.3730 C.3   236  ASP236      0.1674
     82  C         34.7740  -33.3880  -22.6140 C.2   236  ASP236      0.2266
     83  O         34.8300  -33.3450  -21.3860 O.2   236  ASP236     -0.2867
     84  CB        36.1990  -34.5630  -24.3790 C.3   236  ASP236      0.1410
     85  CG        37.5230  -34.2040  -23.7110 C.2   236  ASP236      0.3668
     86  OD1       37.5700  -34.0230  -22.4730 O.co2 236  ASP236     -0.2456
     87  OD2       38.5260  -34.0890  -24.4280 O.co2 236  ASP236     -0.2456
@<TRIPOS>BOND
     1    55    56    1
     2    55    54    1
     3    55    58    1
     4    56    57    2
     5    61    62    1
     6    59    58    1
     7    58    60    1
     8    63    64    2
     9    63    62    1
    10    62    65    1
    11    48    46   am
    12    65    66    1
    13    65    67    1
    14    28    27    2
    15    68    66    1
    16    46    47    2
    17    46    45    1
    18    25    26    1
    19    69    70    1
    20    40    38    1
    21    45    42    1
    22    27    26    1
    23    27    33   am
    24    26    29    1
    25    70    71    1
    26    41    42    1
    27    41    35   am
    28    34    33    1
    29    34    35    1
    30    34    37    1
    31    38    37    1
    32    42    43    1
    33    39    37    1
    34    29    30    1
    35    35    36    2
    36    30    31    1
    37    30    32    1
    38    43    44    2
    39    43    49   am
    40    71    72    2
    41    51    52    2
    42    51    50    1
    43    49    50    1
    44    50    53    1
    45    79    77    1
    46    77    78    1
    47    77    74    1
    48    73    74    1
    49    74    75    1
    50    16    13    1
    51    12    13    1
    52    13    14    1
    53    75    76    2
    54    15    14    2
    55    17    18    1
    56    24    22    1
    57    18    21    1
    58    18    19    1
    59    22    21    1
    60    22    23    1
    61    20    19    2
    62    87    85   ar
    63    84    85    1
    64    84    81    1
    65    80    81    1
    66    85    86   ar
    67    11    10   ar
    68    11     9   ar
    69    81    82    1
    70    10     8   ar
    71     9     7   ar
    72     8     6   ar
    73     7     6   ar
    74    82    83    2
    75     6     5    1
    76     5     2    1
    77     2     1    1
    78     2     3    1
    79     3     4    2
