@<TRIPOS>MOLECULE
tmp/2jjxC01.pdb
 102 98 0 0 0
SMALL
GASTEIGER

@<TRIPOS>ATOM
      1  N         55.2670  -11.5760  119.8080 N.3    96  GLU96      -0.1245
      2  CA        54.9620  -12.2210  118.5430 C.3    96  GLU96       0.1567
      3  C         54.9060  -11.1590  117.4570 C.2    96  GLU96       0.2260
      4  O         54.2190  -10.1520  117.5840 O.2    96  GLU96      -0.2867
      5  CB        53.6070  -12.9310  118.6300 C.3    96  GLU96       0.0388
      6  CG        53.6930  -14.4250  118.8640 C.3    96  GLU96       0.1160
      7  CD        54.0690  -15.1760  117.5940 C.2    96  GLU96       0.3649
      8  OE1       53.1500  -15.4980  116.8050 O.co2  96  GLU96      -0.2457
      9  OE2       55.2840  -15.3800  117.3520 O.co2  96  GLU96      -0.2457
     10  N         53.9330  -10.7650  113.4310 N.3    98  ARG98      -0.1245
     11  CA        53.3460  -11.4100  112.2730 C.3    98  ARG98       0.1563
     12  C         53.5020  -10.6060  110.9930 C.2    98  ARG98       0.2260
     13  O         53.2230   -9.4100  110.9660 O.2    98  ARG98      -0.2867
     14  CB        51.8750  -11.7230  112.5500 C.3    98  ARG98       0.0307
     15  CG        51.6340  -12.4640  113.8680 C.3    98  ARG98       0.0489
     16  CD        51.5520  -13.9610  113.5850 C.3    98  ARG98       0.2205
     17  NE        51.3250  -14.7860  114.7690 N.pl3  98  ARG98      -0.0865
     18  CZ        50.2220  -15.4950  114.9790 C.cat  98  ARG98       0.5346
     19  NH1       49.2190  -15.4330  114.1150 N.pl3  98  ARG98       0.1354
     20  NH2       50.1120  -16.2520  116.0600 N.pl3  98  ARG98       0.1354
     21  N         51.4610  -17.5630  101.5790 N.3   106  ASN106     -0.1225
     22  CA        51.3100  -18.7230  102.4530 C.3   106  ASN106      0.1785
     23  C         52.6030  -19.4920  102.6290 C.2   106  ASN106      0.2597
     24  O         53.4170  -19.6040  101.7140 O.2   106  ASN106     -0.2718
     25  CB        50.1920  -19.6520  101.9750 C.3   106  ASN106      0.1169
     26  CG        48.8550  -19.3150  102.5970 C.2   106  ASN106      0.2627
     27  OD1       48.5970  -19.6870  103.7380 O.2   106  ASN106     -0.2716
     28  ND2       47.9710  -18.6720  101.8290 N.am  106  ASN106     -0.0877
     29  N         52.7710  -20.0530  103.8170 N.am  107  ALA107     -0.1966
     30  CA        53.9710  -20.8030  104.1260 C.3   107  ALA107      0.1728
     31  C         55.2030  -19.9430  103.8400 C.2   107  ALA107      0.2616
     32  O         56.3020  -20.4430  103.6300 O.2   107  ALA107     -0.2715
     33  CB        53.9890  -22.1100  103.3460 C.3   107  ALA107      0.0334
     34  N         54.9870  -18.6320  103.8200 N.am  108  VAL108     -0.1963
     35  CA        56.0460  -17.6460  103.6420 C.3   108  VAL108      0.1727
     36  C         55.5850  -16.5440  104.5820 C.2   108  VAL108      0.2616
     37  O         56.3070  -16.1490  105.4930 O.2   108  VAL108     -0.2715
     38  CB        56.1420  -17.1740  102.1960 C.3   108  VAL108      0.0290
     39  CG1       55.6250  -15.7600  102.0500 C.3   108  VAL108      0.0023
     40  CG2       57.5470  -17.3080  101.6520 C.3   108  VAL108      0.0023
     41  N         54.3020  -16.2100  104.4700 N.am  109  ALA109     -0.1963
     42  CA        53.6390  -15.2510  105.3540 C.3   109  ALA109      0.1728
     43  C         52.1460  -15.5830  105.3930 C.2   109  ALA109      0.2616
     44  O         51.6500  -16.3220  104.5500 O.2   109  ALA109     -0.2715
     45  CB        53.8480  -13.8290  104.8520 C.3   109  ALA109      0.0334
     46  N         51.4140  -15.0220  106.3450 N.am  110  GLU110     -0.1964
     47  CA        49.9800  -15.2450  106.3670 C.3   110  GLU110      0.1718
     48  C         49.2280  -14.3410  105.3940 C.2   110  GLU110      0.2458
     49  O         49.4690  -13.1310  105.3390 O.2   110  GLU110     -0.2730
     50  CB        49.3780  -15.1040  107.7650 C.3   110  GLU110      0.0428
     51  CG        50.3020  -14.7200  108.8810 C.3   110  GLU110      0.1163
     52  CD        49.5850  -14.6800  110.2310 C.2   110  GLU110      0.3649
     53  OE1       48.3590  -14.4180  110.2780 O.co2 110  GLU110     -0.2457
     54  OE2       50.2570  -14.9130  111.2550 O.co2 110  GLU110     -0.2457
     55  N         48.2850  -14.9200  104.6250 N.am  111  PRO111     -0.2727
     56  CA        47.4840  -14.0540  103.7540 C.3   111  PRO111      0.1402
     57  C         46.8620  -12.9860  104.6380 C.2   111  PRO111      0.2269
     58  O         46.4510  -13.2610  105.7610 O.2   111  PRO111     -0.2865
     59  CB        46.3710  -14.9940  103.2700 C.3   111  PRO111      0.0296
     60  CG        46.2410  -15.9660  104.3840 C.3   111  PRO111      0.0237
     61  CD        47.6590  -16.2440  104.7550 C.3   111  PRO111      0.0939
     62  N         41.6470  -10.4270  111.3730 N.3   116  ARG116     -0.1245
     63  CA        42.7670  -11.1960  111.9040 C.3   116  ARG116      0.1563
     64  C         43.8530  -10.2260  112.3220 C.2   116  ARG116      0.2260
     65  O         44.4620  -10.3670  113.3910 O.2   116  ARG116     -0.2867
     66  CB        43.3440  -12.1310  110.8360 C.3   116  ARG116      0.0307
     67  CG        43.4770  -13.5770  111.3040 C.3   116  ARG116      0.0489
     68  CD        44.3570  -14.4350  110.4150 C.3   116  ARG116      0.2205
     69  NE        45.2360  -15.3000  111.1980 N.pl3 116  ARG116     -0.0865
     70  CZ        44.8760  -15.9620  112.2970 C.cat 116  ARG116      0.5346
     71  NH1       43.6460  -15.8720  112.7960 N.pl3 116  ARG116      0.1354
     72  NH2       45.7630  -16.7280  112.9100 N.pl3 116  ARG116      0.1354
     73  N         45.2830   -9.7340  116.1230 N.3   120  HIS120     -0.1241
     74  CA        46.6860   -9.8620  116.4820 C.3   120  HIS120      0.1621
     75  C         47.0880   -8.6620  117.3070 C.2   120  HIS120      0.2264
     76  O         47.5260   -8.7930  118.4480 O.2   120  HIS120     -0.2867
     77  CB        47.5100   -9.8560  115.1990 C.3   120  HIS120      0.0745
     78  CG        47.4240  -11.1320  114.4210 C.ar  120  HIS120      0.0817
     79  ND1       47.2520  -12.3620  115.0210 N.ar  120  HIS120     -0.2268
     80  CD2       47.5720  -11.3800  113.0960 C.ar  120  HIS120      0.1154
     81  CE1       47.2910  -13.3080  114.1000 C.ar  120  HIS120      0.1986
     82  NE2       47.4700  -12.7350  112.9190 N.ar  120  HIS120     -0.2212
     83  N         45.8610   -8.6420  120.5420 N.3   123  ASN123     -0.1240
     84  CA        46.5930   -9.5960  121.3660 C.3   123  ASN123      0.1653
     85  C         48.0200   -9.1410  121.6690 C.2   123  ASN123      0.2266
     86  O         48.7760   -9.8450  122.3420 O.2   123  ASN123     -0.2867
     87  CB        46.5980  -10.9800  120.7200 C.3   123  ASN123      0.1155
     88  CG        45.2320  -11.6110  120.7000 C.2   123  ASN123      0.2627
     89  OD1       44.2870  -11.0560  121.2430 O.2   123  ASN123     -0.2716
     90  ND2       45.0990  -12.7290  119.9950 N.am  123  ASN123     -0.0877
     91  N         50.4350   -8.3220  119.3910 N.3   125  TYR125     -0.1241
     92  CA        51.4470   -8.7610  118.4440 C.3   125  TYR125      0.1605
     93  C         51.9480   -7.5610  117.6570 C.2   125  TYR125      0.2264
     94  O         51.2550   -6.5560  117.5290 O.2   125  TYR125     -0.2867
     95  CB        50.8680   -9.7510  117.4360 C.3   125  TYR125      0.0534
     96  CG        50.3050  -11.0250  118.0130 C.ar  125  TYR125     -0.0201
     97  CD1       50.3800  -11.3010  119.3820 C.ar  125  TYR125     -0.0009
     98  CD2       49.6550  -11.9380  117.1880 C.ar  125  TYR125     -0.0009
     99  CE1       49.8280  -12.4570  119.9060 C.ar  125  TYR125      0.0417
    100  CE2       49.0870  -13.0820  117.7050 C.ar  125  TYR125      0.0417
    101  CZ        49.1870  -13.3500  119.0600 C.ar  125  TYR125      0.1957
    102  OH        48.6390  -14.5180  119.5530 O.3   125  TYR125     -0.2866
@<TRIPOS>BOND
     1    21    22    1
     2    40    38    1
     3    24    23    2
     4    28    26   am
     5    25    22    1
     6    25    26    1
     7    39    38    1
     8    38    35    1
     9    22    23    1
    10    26    27    2
    11    23    29   am
    12    59    56    1
    13    59    60    1
    14    33    30    1
    15    32    31    2
    16    35    34    1
    17    35    36    1
    18    56    55    1
    19    56    57    1
    20    29    30    1
    21    34    31   am
    22    31    30    1
    23    60    61    1
    24    41    36   am
    25    41    42    1
    26    44    43    2
    27    36    37    2
    28    55    61    1
    29    55    48   am
    30    57    58    2
    31    45    42    1
    32    49    48    2
    33    42    43    1
    34    43    46   am
    35    48    47    1
    36    46    47    1
    37    47    50    1
    38    50    51    1
    39    51    52    1
    40    52    53   ar
    41    52    54   ar
    42    68    69    1
    43    68    67    1
    44    66    67    1
    45    66    63    1
    46    13    12    2
    47    12    11    1
    48    69    70    2
    49    62    63    1
    50    63    64    1
    51    11    14    1
    52    11    10    1
    53    70    71    1
    54    70    72    1
    55    64    65    2
    56    14    15    1
    57    82    80   ar
    58    82    81   ar
    59    80    78   ar
    60    16    15    1
    61    16    17    1
    62    81    79   ar
    63    19    18    1
    64    78    79   ar
    65    78    77    1
    66    17    18    2
    67    18    20    1
    68    77    74    1
    69    73    74    1
    70    74    75    1
    71     8     7   ar
    72    98   100   ar
    73    98    96   ar
    74    75    76    2
    75     9     7   ar
    76    95    96    1
    77    95    92    1
    78     3     4    2
    79     3     2    1
    80    94    93    2
    81     7     6    1
    82    93    92    1
    83   100   101   ar
    84    96    97   ar
    85    92    91    1
    86     2     5    1
    87     2     1    1
    88     5     6    1
    89   101   102    1
    90   101    99   ar
    91    97    99   ar
    92    90    88   am
    93    83    84    1
    94    88    87    1
    95    88    89    2
    96    87    84    1
    97    84    85    1
    98    85    86    2
