@<TRIPOS>MOLECULE
tmp/2jk7A00.pdb
 127 126 0 0 0
SMALL
GASTEIGER

@<TRIPOS>ATOM
      1  N        103.0630   94.4890   47.7600 N.3    43  LEU43      -0.1245
      2  CA       102.5530   95.7960   47.3580 C.3    43  LEU43       0.1561
      3  C        103.1850   96.2930   46.0660 C.2    43  LEU43       0.2260
      4  O        102.9010   97.4000   45.6170 O.2    43  LEU43      -0.2867
      5  CB       102.7830   96.8230   48.4590 C.3    43  LEU43       0.0270
      6  CG       102.0710   96.5070   49.7720 C.3    43  LEU43       0.0019
      7  CD1      102.1550   97.7140   50.6900 C.3    43  LEU43       0.0001
      8  CD2      100.6220   96.1350   49.4990 C.3    43  LEU43       0.0001
      9  N        108.0030   95.1580   50.3200 N.3    48  LYS48      -0.1231
     10  CA       106.9090   95.4590   51.2330 C.3    48  LYS48       0.1693
     11  C        105.6890   94.5670   51.0330 C.2    48  LYS48       0.2592
     12  O        105.2640   94.2900   49.9000 O.2    48  LYS48      -0.2718
     13  CB       106.5090   96.9280   51.0930 C.3    48  LYS48       0.0285
     14  CG       107.5880   97.8780   51.5820 C.3    48  LYS48       0.0035
     15  CD       107.3080   99.3330   51.2090 C.3    48  LYS48       0.0206
     16  CE       106.1130   99.9030   51.9500 C.3    48  LYS48       0.1093
     17  NZ       106.1260  101.3850   51.9010 N.3    48  LYS48      -0.1314
     18  N        105.1320   94.1180   52.1530 N.am   49  VAL49      -0.1966
     19  CA       103.9620   93.2580   52.1300 C.3    49  VAL49       0.1727
     20  C        103.0300   93.6220   53.2700 C.2    49  VAL49       0.2616
     21  O        103.4320   94.2960   54.2310 O.2    49  VAL49      -0.2715
     22  CB       104.3500   91.7660   52.2620 C.3    49  VAL49       0.0290
     23  CG1      105.1750   91.3320   51.0550 C.3    49  VAL49       0.0023
     24  CG2      105.1240   91.5410   53.5610 C.3    49  VAL49       0.0023
     25  N        101.7810   93.1770   53.1510 N.am   50  LYS50      -0.1977
     26  CA       100.7840   93.4410   54.1750 C.3    50  LYS50       0.1596
     27  C         99.9630   92.1960   54.4500 C.2    50  LYS50       0.2287
     28  O         99.8930   91.2880   53.6210 O.2    50  LYS50      -0.2864
     29  CB        99.8360   94.5560   53.7330 C.3    50  LYS50       0.0298
     30  CG       100.5250   95.7930   53.2070 C.3    50  LYS50       0.0038
     31  CD        99.5740   96.9770   53.1560 C.3    50  LYS50       0.0206
     32  CE        99.1510   97.4000   54.5550 C.3    50  LYS50       0.1093
     33  NZ        98.2180   98.5620   54.5100 N.3    50  LYS50      -0.1314
     34  N        101.8660   95.8940   58.0170 N.3    57  GLY57      -0.1210
     35  CA       102.8270   95.9570   56.9320 C.3    57  GLY57       0.1956
     36  C        104.2320   95.5930   57.3770 C.2    57  GLY57       0.2612
     37  O        104.6900   96.0160   58.4440 O.2    57  GLY57      -0.2717
     38  N        104.9130   94.7950   56.5590 N.am   58  LEU58      -0.1965
     39  CA       106.2820   94.3860   56.8560 C.3    58  LEU58       0.1728
     40  C        107.2020   94.6020   55.6610 C.2    58  LEU58       0.2617
     41  O        106.8230   94.3750   54.5040 O.2    58  LEU58      -0.2715
     42  CB       106.3350   92.9150   57.2780 C.3    58  LEU58       0.0311
     43  CG       105.8050   92.5680   58.6730 C.3    58  LEU58       0.0022
     44  CD1      106.0060   91.0730   58.9130 C.3    58  LEU58       0.0001
     45  CD2      106.5250   93.3860   59.7420 C.3    58  LEU58       0.0001
     46  N        108.4220   95.0340   55.9460 N.am   59  THR59      -0.1937
     47  CA       109.3800   95.2910   54.8840 C.3    59  THR59       0.2028
     48  C        110.7950   95.1010   55.3850 C.2    59  THR59       0.2642
     49  O        111.0180   94.9270   56.5830 O.2    59  THR59      -0.2714
     50  CB       109.2440   96.7460   54.3520 C.3    59  THR59       0.1808
     51  OG1      110.1730   96.9600   53.2800 O.3    59  THR59      -0.2208
     52  CG2      109.5210   97.7470   55.4710 C.3    59  THR59       0.0379
     53  N        111.7440   95.1440   54.4560 N.am   60  ASP60      -0.1957
     54  CA       113.1500   95.0060   54.7930 C.3    60  ASP60       0.1840
     55  C        113.3940   93.6290   55.4080 C.2    60  ASP60       0.2622
     56  O        113.8590   93.5010   56.5340 O.2    60  ASP60      -0.2715
     57  CB       113.5400   96.1380   55.7550 C.3    60  ASP60       0.1450
     58  CG       115.0340   96.2090   56.0120 C.2    60  ASP60       0.3671
     59  OD1      115.5210   95.5120   56.9370 O.co2  60  ASP60      -0.2456
     60  OD2      115.7210   96.9640   55.2830 O.co2  60  ASP60      -0.2456
     61  N        113.0680   92.5960   54.6430 N.am   61  TRP61      -0.1960
     62  CA       113.2380   91.2240   55.0880 C.3    61  TRP61       0.1771
     63  C        114.6680   90.7170   54.9710 C.2    61  TRP61       0.2619
     64  O        115.3990   91.0790   54.0480 O.2    61  TRP61      -0.2715
     65  CB       112.3470   90.2910   54.2740 C.3    61  TRP61       0.0590
     66  CG       110.8940   90.5310   54.4370 C.ar   61  TRP61       0.0006
     67  CD1      110.1470   91.4870   53.8230 C.ar   61  TRP61       0.0946
     68  CD2      109.9990   89.8070   55.2890 C.ar   61  TRP61       0.0152
     69  NE1      108.8410   91.4080   54.2360 N.ar   61  TRP61      -0.2442
     70  CE2      108.7220   90.3850   55.1390 C.ar   61  TRP61       0.0810
     71  CE3      110.1550   88.7240   56.1700 C.ar   61  TRP61       0.0012
     72  CZ2      107.6000   89.9170   55.8370 C.ar   61  TRP61       0.0191
     73  CZ3      109.0430   88.2570   56.8650 C.ar   61  TRP61       0.0001
     74  CH2      107.7810   88.8560   56.6930 C.ar   61  TRP61       0.0015
     75  N        115.0600   89.8750   55.9200 N.am   62  LYS62      -0.1977
     76  CA       116.3770   89.2600   55.8950 C.3    62  LYS62       0.1596
     77  C        116.1520   87.8550   55.3400 C.2    62  LYS62       0.2287
     78  O        115.0780   87.2710   55.5060 O.2    62  LYS62      -0.2864
     79  CB       116.9950   89.2090   57.2930 C.3    62  LYS62       0.0298
     80  CG       117.2260   90.5850   57.9120 C.3    62  LYS62       0.0038
     81  CD       117.7870   91.5820   56.8980 C.3    62  LYS62       0.0206
     82  CE       117.8700   92.9850   57.4890 C.3    62  LYS62       0.1093
     83  NZ       118.1170   94.0400   56.4580 N.3    62  LYS62      -0.1314
     84  N        114.7520   84.8760   57.7630 N.3    65  GLU65      -0.1245
     85  CA       113.5200   85.2250   58.4900 C.3    65  GLU65       0.1567
     86  C        112.2430   84.4980   58.0600 C.2    65  GLU65       0.2260
     87  O        111.9720   84.3330   56.8700 O.2    65  GLU65      -0.2867
     88  CB       113.2930   86.7410   58.4430 C.3    65  GLU65       0.0388
     89  CG       114.4060   87.5260   59.1240 C.3    65  GLU65       0.1160
     90  CD       114.1230   89.0080   59.2010 C.2    65  GLU65       0.3649
     91  OE1      113.8740   89.6170   58.1420 O.co2  65  GLU65      -0.2457
     92  OE2      114.1550   89.5620   60.3200 O.co2  65  GLU65      -0.2457
     93  N        107.6060   86.2260   62.0590 N.3    70  GLN70      -0.1245
     94  CA       107.5980   87.6870   62.0220 C.3    70  GLN70       0.1566
     95  C        106.2030   88.2450   62.2900 C.2    70  GLN70       0.2260
     96  O        106.0210   89.0980   63.1640 O.2    70  GLN70      -0.2867
     97  CB       108.1090   88.1880   60.6640 C.3    70  GLN70       0.0367
     98  CG       109.6150   88.0270   60.4800 C.3    70  GLN70       0.0905
     99  CD       110.3990   88.5200   61.7000 C.2    70  GLN70       0.2608
    100  OE1      110.2630   89.6740   62.1260 O.2    70  GLN70      -0.2717
    101  NE2      111.2180   87.6400   62.2680 N.am   70  GLN70      -0.0878
    102  N        105.6710   91.0610   65.2980 N.3    74  TRP74      -0.1227
    103  CA       105.2060   92.4280   65.1850 C.3    74  TRP74       0.1737
    104  C        103.7100   92.6480   65.3530 C.2    74  TRP74       0.2595
    105  O        103.2910   93.6750   65.8910 O.2    74  TRP74      -0.2718
    106  CB       105.6420   92.9970   63.8350 C.3    74  TRP74       0.0564
    107  CG       107.1240   92.9450   63.6090 C.ar   74  TRP74       0.0003
    108  CD1      107.7990   92.0940   62.7850 C.ar   74  TRP74       0.0946
    109  CD2      108.1090   93.7890   64.2060 C.ar   74  TRP74       0.0152
    110  NE1      109.1470   92.3580   62.8280 N.ar   74  TRP74      -0.2442
    111  CE2      109.3660   93.3940   63.6930 C.ar   74  TRP74       0.0810
    112  CE3      108.0540   94.8430   65.1270 C.ar   74  TRP74       0.0012
    113  CZ2      110.5570   94.0150   64.0660 C.ar   74  TRP74       0.0191
    114  CZ3      109.2380   95.4600   65.5020 C.ar   74  TRP74       0.0001
    115  CH2      110.4750   95.0420   64.9690 C.ar   74  TRP74       0.0015
    116  N        102.8970   91.7010   64.8970 N.am   75  TYR75      -0.1976
    117  CA       101.4510   91.8840   65.0010 C.3    75  TYR75       0.1639
    118  C        100.6980   90.7480   65.7010 C.2    75  TYR75       0.2290
    119  O         99.8100   90.1250   65.1210 O.2    75  TYR75      -0.2864
    120  CB       100.8630   92.1220   63.6030 C.3    75  TYR75       0.0560
    121  CG       101.5260   93.2470   62.8240 C.ar   75  TYR75      -0.0198
    122  CD1      102.3510   92.9770   61.7250 C.ar   75  TYR75      -0.0009
    123  CD2      101.2850   94.5860   63.1480 C.ar   75  TYR75      -0.0009
    124  CE1      102.9130   94.0140   60.9590 C.ar   75  TYR75       0.0417
    125  CE2      101.8420   95.6280   62.3890 C.ar   75  TYR75       0.0417
    126  CZ       102.6490   95.3360   61.2970 C.ar   75  TYR75       0.1957
    127  OH       103.1590   96.3650   60.5290 O.3    75  TYR75      -0.2866
@<TRIPOS>BOND
     1     4     3    2
     2     3     2    1
     3     2     1    1
     4     2     5    1
     5     5     6    1
     6     8     6    1
     7     6     7    1
     8    12    11    2
     9     9    10    1
    10    11    10    1
    11    11    18   am
    12    23    22    1
    13    13    10    1
    14    13    14    1
    15    15    14    1
    16    15    16    1
    17    17    16    1
    18    19    18    1
    19    19    22    1
    20    19    20    1
    21    22    24    1
    22    25    20   am
    23    25    26    1
    24    31    30    1
    25    31    32    1
    26    30    29    1
    27    20    21    2
    28    51    50    1
    29    28    27    2
    30    29    26    1
    31    67    69   ar
    32    67    66   ar
    33    64    63    2
    34    26    27    1
    35    69    70   ar
    36    65    66    1
    37    65    62    1
    38    50    47    1
    39    50    52    1
    40    66    68   ar
    41    53    54    1
    42    53    48   am
    43    41    40    2
    44    33    32    1
    45    61    62    1
    46    61    55   am
    47    54    55    1
    48    54    57    1
    49    47    48    1
    50    47    46    1
    51    63    62    1
    52    63    75   am
    53    70    68   ar
    54    70    72   ar
    55    60    58   ar
    56    68    71   ar
    57    77    78    2
    58    77    76    1
    59    48    49    2
    60    55    56    2
    61    40    46   am
    62    40    39    1
    63    57    58    1
    64    72    74   ar
    65    76    75    1
    66    76    79    1
    67    58    59   ar
    68    71    73   ar
    69    83    82    1
    70    38    39    1
    71    38    36   am
    72    74    73   ar
    73    39    42    1
    74    87    86    2
    75    81    82    1
    76    81    80    1
    77    35    36    1
    78    35    34    1
    79    42    43    1
    80    79    80    1
    81    36    37    2
    82    84    85    1
    83    86    85    1
    84    91    90   ar
    85    88    85    1
    86    88    89    1
    87    43    44    1
    88    43    45    1
    89    89    90    1
    90    90    92   ar
    91    98    97    1
    92    98    99    1
    93   127   126    1
    94    97    94    1
    95   124   126   ar
    96   124   122   ar
    97   126   125   ar
    98    99   100    2
    99    99   101   am
   100   122   121   ar
   101    94    93    1
   102    94    95    1
   103    95    96    2
   104   125   123   ar
   105   108   110   ar
   106   108   107   ar
   107   121   123   ar
   108   121   120    1
   109   110   111   ar
   110   120   117    1
   111   107   106    1
   112   107   109   ar
   113   111   113   ar
   114   111   109   ar
   115   106   103    1
   116   113   115   ar
   117   109   112   ar
   118   116   117    1
   119   116   104   am
   120   115   114   ar
   121   117   118    1
   122   119   118    2
   123   112   114   ar
   124   103   102    1
   125   103   104    1
   126   104   105    2
