@<TRIPOS>MOLECULE
tmp/2jk9A00.pdb
 97 97 0 0 0
SMALL
GASTEIGER

@<TRIPOS>ATOM
      1  N          2.9940   30.8590   31.3290 N.3    48  ARG48      -0.1245
      2  CA         3.7320   32.0980   31.3350 C.3    48  ARG48       0.1563
      3  C          4.4540   32.3560   32.6610 C.2    48  ARG48       0.2260
      4  O          3.8390   32.3630   33.7400 O.2    48  ARG48      -0.2867
      5  CB         2.8010   33.2700   30.9920 C.3    48  ARG48       0.0307
      6  CG         3.5570   34.5540   30.7350 C.3    48  ARG48       0.0489
      7  CD         2.6190   35.7280   30.5400 C.3    48  ARG48       0.2205
      8  NE         3.3100   37.0100   30.6470 N.pl3  48  ARG48      -0.0865
      9  CZ         3.5490   37.6580   31.7880 C.cat  48  ARG48       0.5346
     10  NH1        3.1740   37.1530   32.9590 N.pl3  48  ARG48       0.1354
     11  NH2        4.1870   38.8160   31.7660 N.pl3  48  ARG48       0.1354
     12  N          6.2740   34.5510   35.5630 N.3    50  PRO50      -0.2102
     13  CA         5.7840   35.7890   36.2030 C.3    50  PRO50       0.1504
     14  C          6.6670   37.0340   35.9660 C.2    50  PRO50       0.2576
     15  O          7.2150   37.5960   36.9270 O.2    50  PRO50      -0.2718
     16  CB         5.7580   35.4140   37.6960 C.3    50  PRO50       0.0282
     17  CG         6.8790   34.4240   37.8510 C.3    50  PRO50       0.0208
     18  CD         6.9390   33.6520   36.5270 C.3    50  PRO50       0.0893
     19  N          6.7960   37.4770   34.7150 N.am   51  VAL51      -0.1966
     20  CA         7.6730   38.6180   34.3700 C.3    51  VAL51       0.1727
     21  C          6.8780   39.9190   34.4210 C.2    51  VAL51       0.2616
     22  O          5.8460   40.0650   33.7490 O.2    51  VAL51      -0.2715
     23  CB         8.2930   38.4860   32.9520 C.3    51  VAL51       0.0290
     24  CG1        9.0890   39.7390   32.6100 C.3    51  VAL51       0.0023
     25  CG2        9.1670   37.2250   32.8340 C.3    51  VAL51       0.0023
     26  N          7.3500   40.8540   35.2410 N.am   52  ALA52      -0.1963
     27  CA         6.6750   42.1360   35.4170 C.3    52  ALA52       0.1728
     28  C          6.7970   42.9550   34.1600 C.2    52  ALA52       0.2616
     29  O          7.8100   42.8860   33.4730 O.2    52  ALA52      -0.2715
     30  CB         7.2840   42.8970   36.5740 C.3    52  ALA52       0.0334
     31  N          5.7570   43.7210   33.8580 N.am   53  GLN53      -0.1977
     32  CA         5.7530   44.6460   32.7110 C.3    53  GLN53       0.1601
     33  C          6.1770   44.0010   31.3960 C.2    53  GLN53       0.2287
     34  O          7.0620   44.4880   30.7010 O.2    53  GLN53      -0.2864
     35  CB         6.6250   45.8730   33.0190 C.3    53  GLN53       0.0394
     36  CG         6.1010   46.6980   34.1960 C.3    53  GLN53       0.0908
     37  CD         4.7290   47.2880   33.9390 C.2    53  GLN53       0.2608
     38  OE1        4.4200   47.7070   32.8250 O.2    53  GLN53      -0.2717
     39  NE2        3.8990   47.3310   34.9740 N.am   53  GLN53      -0.0878
     40  N         -5.8290   38.4220   33.7210 N.3    81  GLY81      -0.1210
     41  CA        -5.2180   39.7330   33.9530 C.3    81  GLY81       0.1956
     42  C         -5.8180   40.8540   33.1070 C.2    81  GLY81       0.2612
     43  O         -6.9710   40.7900   32.6950 O.2    81  GLY81      -0.2717
     44  N         -5.0310   41.8900   32.8500 N.am   82  THR82      -0.1952
     45  CA        -5.5300   43.0920   32.1810 C.3    82  THR82       0.1897
     46  C         -5.6550   42.9890   30.6390 C.2    82  THR82       0.2313
     47  O         -6.3680   43.7890   30.0240 O.2    82  THR82      -0.2863
     48  CB        -4.6220   44.2930   32.5140 C.3    82  THR82       0.1794
     49  OG1       -3.2970   44.0350   32.0490 O.3    82  THR82      -0.2208
     50  CG2       -4.5820   44.5580   34.0280 C.3    82  THR82       0.0378
     51  N          2.1530   46.0070   29.5000 N.3   100  TYR100     -0.1241
     52  CA         0.9780   45.1620   29.3850 C.3   100  TYR100      0.1605
     53  C          0.1350   45.7300   28.2730 C.2   100  TYR100      0.2264
     54  O         -0.3700   46.8490   28.3930 O.2   100  TYR100     -0.2867
     55  CB         0.1870   45.1720   30.6920 C.3   100  TYR100      0.0534
     56  CG         0.9490   44.6300   31.8720 C.ar  100  TYR100     -0.0201
     57  CD1        1.6800   43.4390   31.7800 C.ar  100  TYR100     -0.0009
     58  CD2        0.9530   45.3110   33.0910 C.ar  100  TYR100     -0.0009
     59  CE1        2.3840   42.9420   32.8710 C.ar  100  TYR100      0.0417
     60  CE2        1.6370   44.8160   34.1830 C.ar  100  TYR100      0.0417
     61  CZ         2.3510   43.6350   34.0640 C.ar  100  TYR100      0.1957
     62  OH         3.0270   43.1460   35.1430 O.3   100  TYR100     -0.2866
     63  N         -0.4540   38.4030   29.8060 N.3   187  VAL187     -0.1231
     64  CA         0.2730   39.2280   30.7910 C.3   187  VAL187      0.1692
     65  C          0.2400   38.6680   32.2260 C.2   187  VAL187      0.2592
     66  O          0.8930   39.2240   33.1050 O.2   187  VAL187     -0.2718
     67  CB        -0.2940   40.6840   30.8160 C.3   187  VAL187      0.0266
     68  CG1       -0.2410   41.3240   29.4090 C.3   187  VAL187      0.0020
     69  CG2       -1.7210   40.6940   31.3860 C.3   187  VAL187      0.0020
     70  N         -0.4760   37.5610   32.4620 N.am  188  TRP188     -0.1962
     71  CA        -0.6860   37.0440   33.8210 C.3   188  TRP188      0.1771
     72  C          0.3900   36.0240   34.2740 C.2   188  TRP188      0.2620
     73  O          0.6970   35.0510   33.5760 O.2   188  TRP188     -0.2715
     74  CB        -2.0890   36.4390   33.9320 C.3   188  TRP188      0.0590
     75  CG        -2.4730   35.9400   35.3220 C.ar  188  TRP188      0.0006
     76  CD1       -2.3950   34.6460   35.7960 C.ar  188  TRP188      0.0946
     77  CD2       -3.0400   36.7140   36.3780 C.ar  188  TRP188      0.0152
     78  NE1       -2.8580   34.5890   37.0890 N.ar  188  TRP188     -0.2442
     79  CE2       -3.2640   35.8390   37.4710 C.ar  188  TRP188      0.0810
     80  CE3       -3.3850   38.0660   36.5130 C.ar  188  TRP188      0.0012
     81  CZ2       -3.8150   36.2780   38.6870 C.ar  188  TRP188      0.0191
     82  CZ3       -3.9300   38.5020   37.7250 C.ar  188  TRP188      0.0001
     83  CH2       -4.1300   37.6090   38.7960 C.ar  188  TRP188      0.0015
     84  N          0.9510   36.2420   35.4590 N.am  189  GLY189     -0.1940
     85  CA         1.9590   35.3320   35.9910 C.3   189  GLY189      0.2014
     86  C          1.3960   33.9470   36.2570 C.2   189  GLY189      0.2638
     87  O          0.3650   33.7930   36.9290 O.2   189  GLY189     -0.2714
     88  N          2.0700   32.9410   35.7020 N.am  190  HIS190     -0.1973
     89  CA         1.6970   31.5310   35.8510 C.3   190  HIS190      0.1656
     90  C          0.3850   31.1710   35.1700 C.2   190  HIS190      0.2291
     91  O         -0.1580   30.0900   35.3900 O.2   190  HIS190     -0.2864
     92  CB         1.6790   31.0930   37.3290 C.3   190  HIS190      0.0771
     93  CG         2.9950   31.2570   38.0230 C.ar  190  HIS190      0.0820
     94  ND1        4.1000   30.4940   37.7090 N.ar  190  HIS190     -0.2267
     95  CD2        3.3840   32.0980   39.0120 C.ar  190  HIS190      0.1154
     96  CE1        5.1160   30.8690   38.4620 C.ar  190  HIS190      0.1986
     97  NE2        4.7070   31.8350   39.2670 N.ar  190  HIS190     -0.2212
@<TRIPOS>BOND
     1    53    54    2
     2    53    52    1
     3    52    51    1
     4    52    55    1
     5    68    67    1
     6    63    64    1
     7    47    46    2
     8     7     8    1
     9     7     6    1
    10    46    45    1
    11     8     9    2
    12    55    56    1
    13    34    33    2
    14     6     5    1
    15    64    67    1
    16    64    65    1
    17    67    69    1
    18     5     2    1
    19     1     2    1
    20     2     3    1
    21    33    32    1
    22    11     9    1
    23    57    56   ar
    24    57    59   ar
    25     9    10    1
    26    56    58   ar
    27    49    48    1
    28    45    48    1
    29    45    44    1
    30    65    70   am
    31    65    66    2
    32    70    71    1
    33    48    50    1
    34    24    23    1
    35     3     4    2
    36    43    42    2
    37    32    35    1
    38    32    31    1
    39    38    37    2
    40    25    23    1
    41    44    42   am
    42    59    61   ar
    43    23    20    1
    44    35    36    1
    45    58    60   ar
    46    42    41    1
    47    29    28    2
    48    73    72    2
    49    40    41    1
    50    22    21    2
    51    71    74    1
    52    71    72    1
    53    31    28   am
    54    74    75    1
    55    37    36    1
    56    37    39   am
    57    61    60   ar
    58    61    62    1
    59    28    27    1
    60    72    84   am
    61    20    21    1
    62    20    19    1
    63    21    26   am
    64    19    14   am
    65    90    91    2
    66    90    89    1
    67    26    27    1
    68    75    76   ar
    69    75    77   ar
    70    27    30    1
    71    84    85    1
    72    12    13    1
    73    12    18    1
    74    88    89    1
    75    88    86   am
    76    76    78   ar
    77    89    92    1
    78    14    13    1
    79    14    15    2
    80    85    86    1
    81    13    16    1
    82    86    87    2
    83    77    80   ar
    84    77    79   ar
    85    80    82   ar
    86    18    17    1
    87    78    79   ar
    88    92    93    1
    89    79    81   ar
    90    16    17    1
    91    94    93   ar
    92    94    96   ar
    93    82    83   ar
    94    93    95   ar
    95    96    97   ar
    96    81    83   ar
    97    95    97   ar
