@<TRIPOS>MOLECULE
tmp/2jkbA00.pdb
 178 168 0 0 0
SMALL
GASTEIGER

@<TRIPOS>ATOM
      1  N          3.3030  -14.0330  -35.8010 N.3   209  ARG209     -0.1231
      2  CA         2.3430  -13.4210  -34.8720 C.3   209  ARG209      0.1694
      3  C          1.0380  -14.2160  -34.8940 C.2   209  ARG209      0.2591
      4  O          0.8170  -15.0220  -35.8050 O.2   209  ARG209     -0.2718
      5  CB         2.0410  -11.9650  -35.2650 C.3   209  ARG209      0.0321
      6  CG         3.0620  -10.9250  -34.7760 C.3   209  ARG209      0.0489
      7  CD         2.4140   -9.5300  -34.6160 C.3   209  ARG209      0.2205
      8  NE         1.3790   -9.5830  -33.6160 N.pl3 209  ARG209     -0.0865
      9  CZ         0.4360   -8.6580  -33.4240 C.cat 209  ARG209      0.5346
     10  NH1        0.4140   -7.5390  -34.1490 N.pl3 209  ARG209      0.1354
     11  NH2       -0.4760   -8.8570  -32.4780 N.pl3 209  ARG209      0.1354
     12  N          0.1840  -13.9390  -33.8990 N.am  210  ILE210     -0.1980
     13  CA        -1.1980  -14.4170  -33.8780 C.3   210  ILE210      0.1595
     14  C         -1.2690  -15.9500  -33.7240 C.2   210  ILE210      0.2287
     15  O         -1.7760  -16.6620  -34.6150 O.2   210  ILE210     -0.2864
     16  CB        -2.0030  -13.9800  -35.1310 C.3   210  ILE210      0.0276
     17  CG1       -1.6160  -12.5670  -35.6520 C.3   210  ILE210      0.0022
     18  CG2       -3.4970  -14.0430  -34.7960 C.3   210  ILE210      0.0022
     19  CD1       -1.7870  -11.4340  -34.5700 C.3   210  ILE210      0.0001
     20  N          4.7320  -14.3710  -40.9520 N.3   228  ARG228     -0.1245
     21  CA         4.8110  -12.9890  -41.4230 C.3   228  ARG228      0.1563
     22  C          6.1860  -12.7280  -42.0330 C.2   228  ARG228      0.2260
     23  O          7.2110  -12.8740  -41.3490 O.2   228  ARG228     -0.2867
     24  CB         4.4960  -11.9970  -40.2980 C.3   228  ARG228      0.0307
     25  CG         3.0830  -12.1590  -39.7200 C.3   228  ARG228      0.0489
     26  CD         2.5640  -10.9230  -39.0520 C.3   228  ARG228      0.2205
     27  NE         1.1470  -11.0390  -38.7430 N.pl3 228  ARG228     -0.0865
     28  CZ         0.4210  -10.0490  -38.2310 C.cat 228  ARG228      0.5346
     29  NH1        0.9980   -8.8820  -37.9230 N.pl3 228  ARG228      0.1354
     30  NH2       -0.8610  -10.2290  -38.0040 N.pl3 228  ARG228      0.1354
     31  N          1.1370   -6.0790  -39.8470 N.3   234  ASP234     -0.1225
     32  CA        -0.1120   -6.6490  -40.3310 C.3   234  ASP234      0.1805
     33  C         -0.2070   -6.4320  -41.8390 C.2   234  ASP234      0.2598
     34  O          0.5240   -5.6210  -42.4210 O.2   234  ASP234     -0.2718
     35  CB        -1.3110   -5.9170  -39.7120 C.3   234  ASP234      0.1424
     36  CG        -1.2500   -5.7970  -38.1900 C.2   234  ASP234      0.3668
     37  OD1       -0.7580   -6.6930  -37.4770 O.co2 234  ASP234     -0.2456
     38  OD2       -1.7380   -4.7590  -37.6790 O.co2 234  ASP234     -0.2456
     39  N         -1.1550   -7.1100  -42.4760 N.am  235  SER235     -0.1952
     40  CA        -1.4900   -6.7940  -43.8780 C.3   235  SER235      0.1924
     41  C         -1.7860   -5.3030  -43.9920 C.2   235  SER235      0.2314
     42  O         -2.3520   -4.7360  -43.0420 O.2   235  SER235     -0.2863
     43  CB        -2.7140   -7.5990  -44.3030 C.3   235  SER235      0.2116
     44  OG        -2.4660   -8.9700  -44.0790 O.3   235  SER235     -0.2180
     45  N         -4.3830  -13.4900  -42.8280 N.3   290  ILE290     -0.1231
     46  CA        -4.1190  -12.8860  -41.5410 C.3   290  ILE290      0.1692
     47  C         -5.2120  -13.2820  -40.5610 C.2   290  ILE290      0.2592
     48  O         -6.3800  -13.3390  -40.9210 O.2   290  ILE290     -0.2718
     49  CB        -3.9560  -11.3440  -41.6630 C.3   290  ILE290      0.0266
     50  CG1       -3.6980  -10.7150  -40.2880 C.3   290  ILE290      0.0019
     51  CG2       -5.1570  -10.6820  -42.4010 C.3   290  ILE290      0.0020
     52  CD1       -3.0810   -9.2920  -40.3470 C.3   290  ILE290      0.0001
     53  N         -4.7810  -13.6080  -39.3450 N.am  291  ASP291     -0.1974
     54  CA        -5.6730  -13.8920  -38.2300 C.3   291  ASP291      0.1709
     55  C         -6.4570  -15.1880  -38.4130 C.2   291  ASP291      0.2293
     56  O         -7.5750  -15.1800  -38.9270 O.2   291  ASP291     -0.2864
     57  CB        -6.6400  -12.7420  -37.9760 C.3   291  ASP291      0.1436
     58  CG        -5.9670  -11.5040  -37.3930 C.2   291  ASP291      0.3671
     59  OD1       -4.7750  -11.5400  -37.0680 O.co2 291  ASP291     -0.2456
     60  OD2       -6.6820  -10.4840  -37.2870 O.co2 291  ASP291     -0.2456
     61  N         -8.6660  -14.4720  -42.3480 N.3   308  ASP308     -0.1239
     62  CA        -8.9540  -13.3830  -43.2830 C.3   308  ASP308      0.1674
     63  C         -8.0810  -13.5300  -44.5330 C.2   308  ASP308      0.2266
     64  O         -6.9330  -13.9790  -44.4490 O.2   308  ASP308     -0.2867
     65  CB        -8.6850  -11.9830  -42.7060 C.3   308  ASP308      0.1410
     66  CG        -9.3280  -11.7220  -41.3420 C.2   308  ASP308      0.3668
     67  OD1      -10.3590  -12.3330  -40.9770 O.co2 308  ASP308     -0.2456
     68  OD2       -8.7800  -10.8310  -40.6420 O.co2 308  ASP308     -0.2456
     69  N         -6.6660  -11.2160  -47.7840 N.3   310  MET310     -0.1245
     70  CA        -6.4120   -9.8680  -48.2930 C.3   310  MET310      0.1570
     71  C         -5.8270   -9.9300  -49.7050 C.2   310  MET310      0.2261
     72  O         -4.7800  -10.5350  -49.9140 O.2   310  MET310     -0.2867
     73  CB        -5.4090   -9.1570  -47.4020 C.3   310  MET310      0.0387
     74  CG        -5.8210   -9.0540  -45.9550 C.3   310  MET310      0.0595
     75  SD        -7.1790   -7.8840  -45.7820 S.3   310  MET310     -0.1393
     76  CE        -7.3810   -7.8690  -43.9860 C.3   310  MET310      0.0692
     77  N         -6.4990   -4.1760  -43.2890 N.3   316  ASN316     -0.1240
     78  CA        -7.6810   -3.6100  -42.6340 C.3   316  ASN316      0.1653
     79  C         -7.7770   -2.0920  -42.8100 C.2   316  ASN316      0.2266
     80  O         -8.8870   -1.5520  -42.8780 O.2   316  ASN316     -0.2867
     81  CB        -7.7610   -4.0250  -41.1510 C.3   316  ASN316      0.1155
     82  CG        -6.9760   -3.1160  -40.2350 C.2   316  ASN316      0.2627
     83  OD1       -7.3360   -1.9480  -40.0460 O.2   316  ASN316     -0.2716
     84  ND2       -5.8960   -3.6390  -39.6500 N.am  316  ASN316     -0.0877
     85  N        -14.0330   -9.4280  -39.5070 N.3   453  TYR453     -0.1241
     86  CA       -12.6640   -9.8260  -39.1830 C.3   453  TYR453      0.1605
     87  C        -12.6860  -11.0120  -38.2250 C.2   453  TYR453      0.2264
     88  O        -13.2930  -10.9620  -37.1660 O.2   453  TYR453     -0.2867
     89  CB       -11.9200   -8.6430  -38.5810 C.3   453  TYR453      0.0534
     90  CG       -11.6370   -7.5610  -39.6010 C.ar  453  TYR453     -0.0201
     91  CD1      -10.6560   -7.7340  -40.5520 C.ar  453  TYR453     -0.0009
     92  CD2      -12.3700   -6.3870  -39.6370 C.ar  453  TYR453     -0.0009
     93  CE1      -10.3860   -6.7790  -41.4930 C.ar  453  TYR453      0.0417
     94  CE2      -12.0970   -5.4050  -40.5980 C.ar  453  TYR453      0.0417
     95  CZ       -11.1170   -5.6090  -41.5220 C.ar  453  TYR453      0.1957
     96  OH       -10.8400   -4.6330  -42.4530 O.3   453  TYR453     -0.2866
     97  N        -15.5370   -9.8910  -35.7980 N.3   473  TYR473     -0.1241
     98  CA       -15.9600   -8.5490  -35.4060 C.3   473  TYR473      0.1605
     99  C        -16.0010   -7.5810  -36.5790 C.2   473  TYR473      0.2264
    100  O        -15.3620   -7.7640  -37.6120 O.2   473  TYR473     -0.2867
    101  CB       -15.0490   -7.9820  -34.3210 C.3   473  TYR473      0.0534
    102  CG       -13.6230   -7.7870  -34.7660 C.ar  473  TYR473     -0.0201
    103  CD1      -13.2040   -6.5820  -35.3050 C.ar  473  TYR473     -0.0009
    104  CD2      -12.6840   -8.7940  -34.6360 C.ar  473  TYR473     -0.0009
    105  CE1      -11.8970   -6.3750  -35.6870 C.ar  473  TYR473      0.0417
    106  CE2      -11.3740   -8.6030  -35.0280 C.ar  473  TYR473      0.0417
    107  CZ       -10.9780   -7.4020  -35.5730 C.ar  473  TYR473      0.1957
    108  OH        -9.6720   -7.2070  -36.0050 O.3   473  TYR473     -0.2866
    109  N        -11.2370   -3.1320  -32.2500 N.3   503  THR503     -0.1218
    110  CA       -10.7020   -4.4130  -32.6590 C.3   503  THR503      0.1862
    111  C        -11.2250   -5.3950  -31.6090 C.2   503  THR503      0.2287
    112  O        -10.5310   -5.6690  -30.6270 O.2   503  THR503     -0.2866
    113  CB        -9.1650   -4.3700  -32.7100 C.3   503  THR503      0.1770
    114  OG1       -8.7460   -3.3360  -33.6210 O.3   503  THR503     -0.2211
    115  CG2       -8.6080   -5.6690  -33.1680 C.3   503  THR503      0.0375
    116  N        -11.7300   -8.4400  -30.5900 N.3   505  GLU505     -0.1245
    117  CA       -11.3110   -9.8270  -30.6960 C.3   505  GLU505      0.1567
    118  C        -11.9080  -10.6010  -29.5210 C.2   505  GLU505      0.2260
    119  O        -11.6880  -10.2590  -28.3370 O.2   505  GLU505     -0.2867
    120  CB        -9.7950   -9.9130  -30.7330 C.3   505  GLU505      0.0388
    121  CG        -9.1780   -9.3400  -32.0030 C.3   505  GLU505      0.1160
    122  CD        -7.7250   -8.9320  -31.8440 C.2   505  GLU505      0.3649
    123  OE1       -7.0130   -8.9080  -32.9000 O.co2 505  GLU505     -0.2457
    124  OE2       -7.3080   -8.6420  -30.6860 O.co2 505  GLU505     -0.2457
    125  N        -11.8620   -8.1040  -26.4020 N.3   521  ARG521     -0.1245
    126  CA       -11.0660   -6.8970  -26.3720 C.3   521  ARG521      0.1563
    127  C        -11.9560   -5.6980  -26.6330 C.2   521  ARG521      0.2260
    128  O        -12.8610   -5.7590  -27.4610 O.2   521  ARG521     -0.2867
    129  CB       -10.0190   -7.0150  -27.4700 C.3   521  ARG521      0.0307
    130  CG        -9.1690   -5.8040  -27.7140 C.3   521  ARG521      0.0489
    131  CD        -8.1100   -6.1320  -28.7480 C.3   521  ARG521      0.2205
    132  NE        -7.3860   -4.9430  -29.1990 N.pl3 521  ARG521     -0.0865
    133  CZ        -6.4410   -4.9690  -30.1280 C.cat 521  ARG521      0.5346
    134  NH1       -6.0850   -6.1260  -30.6700 N.pl3 521  ARG521      0.1354
    135  NH2       -5.8460   -3.8460  -30.5230 N.pl3 521  ARG521      0.1354
    136  N          1.6640   -3.9170  -23.7180 N.3   583  ARG583     -0.1245
    137  CA         1.3930   -5.3580  -23.8340 C.3   583  ARG583      0.1563
    138  C          2.4750   -6.0850  -23.0760 C.2   583  ARG583      0.2260
    139  O          3.5050   -6.4960  -23.6230 O.2   583  ARG583     -0.2867
    140  CB         1.2860   -5.7820  -25.2900 C.3   583  ARG583      0.0307
    141  CG         0.0890   -5.1450  -25.9540 C.3   583  ARG583      0.0489
    142  CD        -0.1560   -5.7150  -27.3310 C.3   583  ARG583      0.2205
    143  NE        -1.4410   -5.3500  -27.8930 N.pl3 583  ARG583     -0.0865
    144  CZ        -1.7590   -5.4180  -29.1860 C.cat 583  ARG583      0.5346
    145  NH1       -0.8700   -5.8210  -30.0940 N.pl3 583  ARG583      0.1354
    146  NH2       -2.9830   -5.0760  -29.5850 N.pl3 583  ARG583      0.1354
    147  N         -0.5290  -11.1900  -27.8620 N.3   617  TYR617     -0.1241
    148  CA        -1.5330  -12.1940  -28.2430 C.3   617  TYR617      0.1605
    149  C         -1.1280  -13.5640  -27.6880 C.2   617  TYR617      0.2264
    150  O          0.0410  -13.8790  -27.5580 O.2   617  TYR617     -0.2867
    151  CB        -1.7210  -12.2810  -29.7370 C.3   617  TYR617      0.0534
    152  CG        -2.5110  -11.1580  -30.3720 C.ar  617  TYR617     -0.0201
    153  CD1       -2.3690   -9.8420  -29.9530 C.ar  617  TYR617     -0.0009
    154  CD2       -3.3860  -11.4190  -31.4260 C.ar  617  TYR617     -0.0009
    155  CE1       -3.1050   -8.8290  -30.5350 C.ar  617  TYR617      0.0417
    156  CE2       -4.1230  -10.4040  -32.0440 C.ar  617  TYR617      0.0417
    157  CZ        -3.9660   -9.1020  -31.5730 C.ar  617  TYR617      0.1957
    158  OH        -4.6600   -8.0820  -32.2100 O.3   617  TYR617     -0.2866
    159  N          3.6830   -6.3840  -29.0030 N.3   637  SER637     -0.1202
    160  CA         3.4220   -6.3460  -30.4410 C.3   637  SER637      0.2020
    161  C          2.6870   -5.0950  -30.9340 C.2   637  SER637      0.2618
    162  O          2.3630   -5.0080  -32.1290 O.2   637  SER637     -0.2717
    163  CB         2.6490   -7.5960  -30.8830 C.3   637  SER637      0.2103
    164  OG         1.4440   -7.7440  -30.1510 O.3   637  SER637     -0.2182
    165  N          2.4140   -4.1650  -30.0110 N.am  638  TRP638     -0.1975
    166  CA         1.8870   -2.8410  -30.3760 C.3   638  TRP638      0.1640
    167  C          3.0180   -1.8130  -30.5110 C.2   638  TRP638      0.2290
    168  O          2.9850   -0.9110  -31.3730 O.2   638  TRP638     -0.2864
    169  CB         0.8810   -2.3800  -29.3420 C.3   638  TRP638      0.0576
    170  CG         0.0950   -1.1640  -29.7390 C.ar  638  TRP638      0.0006
    171  CD1        0.3600    0.1300  -29.3950 C.ar  638  TRP638      0.0946
    172  CD2       -1.0830   -1.1320  -30.5410 C.ar  638  TRP638      0.0152
    173  NE1       -0.5910    0.9740  -29.9500 N.ar  638  TRP638     -0.2442
    174  CE2       -1.5040    0.2180  -30.6310 C.ar  638  TRP638      0.0810
    175  CE3       -1.8390   -2.1100  -31.1730 C.ar  638  TRP638      0.0012
    176  CZ2       -2.6380    0.5960  -31.3540 C.ar  638  TRP638      0.0191
    177  CZ3       -2.9590   -1.7340  -31.8790 C.ar  638  TRP638      0.0001
    178  CH2       -3.3570   -0.3980  -31.9630 C.ar  638  TRP638      0.0015
@<TRIPOS>BOND
     1    72    71    2
     2    71    70    1
     3    70    69    1
     4    70    73    1
     5    73    74    1
     6    74    75    1
     7    75    76    1
     8    63    64    2
     9    63    62    1
    10    43    44    1
    11    43    40    1
    12    41    40    1
    13    41    42    2
    14    40    39    1
    15    77    78    1
    16    62    65    1
    17    62    61    1
    18    80    79    2
    19    45    46    1
    20    79    78    1
    21    65    66    1
    22    78    81    1
    23    39    33   am
    24    96    95    1
    25    34    33    2
    26    51    49    1
    27    22    21    1
    28    22    23    2
    29    33    32    1
    30    49    46    1
    31    49    50    1
    32    46    47    1
    33    95    93   ar
    34    95    94   ar
    35    93    91   ar
    36    21    20    1
    37    21    24    1
    38    66    67   ar
    39    66    68   ar
    40    81    82    1
    41    48    47    2
    42    94    92   ar
    43    47    53   am
    44    91    90   ar
    45    52    50    1
    46    32    31    1
    47    32    35    1
    48    24    25    1
    49    82    83    2
    50    82    84   am
    51    25    26    1
    52    35    36    1
    53    92    90   ar
    54    90    89    1
    55    85    86    1
    56    53    54    1
    57    86    89    1
    58    86    87    1
    59    26    27    1
    60    56    55    2
    61    27    28    2
    62    55    54    1
    63    28    30    1
    64    28    29    1
    65    54    57    1
    66    87    88    2
    67    36    38   ar
    68    36    37   ar
    69    57    58    1
    70   100    99    2
    71    58    60   ar
    72    58    59   ar
    73    99    98    1
    74   108   107    1
    75     4     3    2
    76     1     2    1
    77    97    98    1
    78   105   107   ar
    79   105   103   ar
    80    17    16    1
    81    17    19    1
    82   107   106   ar
    83    98   101    1
    84   103   102   ar
    85     5     2    1
    86     5     6    1
    87    16    18    1
    88    16    13    1
    89   106   104   ar
    90     3     2    1
    91     3    12   am
    92     6     7    1
    93   102   104   ar
    94   102   101    1
    95     7     8    1
    96    15    14    2
    97    10     9    1
    98    12    13    1
    99    13    14    1
   100   114   113    1
   101     8     9    2
   102     9    11    1
   103   115   113    1
   104   123   122   ar
   105   113   110    1
   106   110   109    1
   107   110   111    1
   108   158   157    1
   109   162   161    2
   110   156   157   ar
   111   156   154   ar
   112   121   122    1
   113   121   120    1
   114   178   177   ar
   115   178   176   ar
   116   177   175   ar
   117   122   124   ar
   118   111   112    2
   119   157   155   ar
   120   154   152   ar
   121   168   167    2
   122   176   174   ar
   123   175   172   ar
   124   161   160    1
   125   161   165   am
   126   163   160    1
   127   163   164    1
   128   120   117    1
   129   117   116    1
   130   117   118    1
   131   134   133    1
   132   174   172   ar
   133   174   173   ar
   134   172   170   ar
   135   155   153   ar
   136   135   133    1
   137   167   166    1
   138   160   159    1
   139   166   165    1
   140   166   169    1
   141   152   153   ar
   142   152   151    1
   143   133   132    2
   144   145   144    1
   145   173   171   ar
   146   170   171   ar
   147   170   169    1
   148   151   148    1
   149   146   144    1
   150   118   119    2
   151   132   131    1
   152   144   143    2
   153   131   130    1
   154   148   147    1
   155   148   149    1
   156   143   142    1
   157   130   129    1
   158   149   150    2
   159   129   126    1
   160   128   127    2
   161   142   141    1
   162   127   126    1
   163   125   126    1
   164   141   140    1
   165   140   137    1
   166   137   136    1
   167   137   138    1
   168   139   138    2
