@<TRIPOS>MOLECULE
tmp/2jkeA00.pdb
 158 153 0 0 0
SMALL
GASTEIGER

@<TRIPOS>ATOM
      1  N         17.3200   51.9530   72.8640 N.3   155  GLU155     -0.1245
      2  CA        18.6710   51.8240   73.4620 C.3   155  GLU155      0.1567
      3  C         19.1600   53.1030   74.1240 C.2   155  GLU155      0.2260
      4  O         20.3180   53.5220   73.9290 O.2   155  GLU155     -0.2867
      5  CB        19.6640   51.3540   72.3840 C.3   155  GLU155      0.0388
      6  CG        19.4420   49.9000   72.0170 C.3   155  GLU155      0.1160
      7  CD        20.4450   49.4200   70.9760 C.2   155  GLU155      0.3649
      8  OE1       21.1780   50.2120   70.3520 O.co2 155  GLU155     -0.2457
      9  OE2       20.3900   48.1540   70.9070 O.co2 155  GLU155     -0.2457
     10  N         31.5330   36.7980   72.1650 N.3   292  TRP292     -0.1241
     11  CA        30.6800   37.9640   72.0470 C.3   292  TRP292      0.1605
     12  C         31.3750   39.2260   72.5630 C.2   292  TRP292      0.2264
     13  O         31.5750   40.1760   71.8200 O.2   292  TRP292     -0.2867
     14  CB        29.3760   37.7020   72.8450 C.3   292  TRP292      0.0550
     15  CG        28.4620   38.9400   72.7830 C.ar  292  TRP292      0.0003
     16  CD1       27.7730   39.4360   71.6830 C.ar  292  TRP292      0.0946
     17  CD2       28.1930   39.8440   73.8560 C.ar  292  TRP292      0.0152
     18  NE1       27.1480   40.6420   72.0170 N.ar  292  TRP292     -0.2442
     19  CE2       27.3590   40.8850   73.3450 C.ar  292  TRP292      0.0810
     20  CE3       28.5900   39.8920   75.1940 C.ar  292  TRP292      0.0012
     21  CZ2       26.8990   41.9400   74.1350 C.ar  292  TRP292      0.0191
     22  CZ3       28.1380   40.9640   75.9920 C.ar  292  TRP292      0.0001
     23  CH2       27.2930   41.9620   75.4550 C.ar  292  TRP292      0.0015
     24  N         32.2410   43.0750   70.9750 N.3   296  ILE296     -0.1245
     25  CA        31.5550   44.2490   71.4930 C.3   296  ILE296      0.1561
     26  C         32.5840   45.2960   71.9830 C.2   296  ILE296      0.2260
     27  O         32.4200   46.5110   71.7660 O.2   296  ILE296     -0.2867
     28  CB        30.5710   43.8550   72.6560 C.3   296  ILE296      0.0252
     29  CG1       29.3720   42.9890   72.1290 C.3   296  ILE296      0.0019
     30  CG2       30.1150   45.1180   73.4170 C.3   296  ILE296      0.0019
     31  CD1       28.5060   43.8010   71.1570 C.3   296  ILE296      0.0001
     32  N         33.8810   40.3240   64.2580 N.3   302  TRP302     -0.1241
     33  CA        32.8840   39.3740   63.7150 C.3   302  TRP302      0.1605
     34  C         33.3750   38.8860   62.3410 C.2   302  TRP302      0.2264
     35  O         33.0790   37.7520   61.9160 O.2   302  TRP302     -0.2867
     36  CB        31.4960   40.0320   63.5070 C.3   302  TRP302      0.0550
     37  CG        30.7050   40.3030   64.7760 C.ar  302  TRP302      0.0003
     38  CD1       29.8520   39.4410   65.4050 C.ar  302  TRP302      0.0946
     39  CD2       30.6470   41.5380   65.5240 C.ar  302  TRP302      0.0152
     40  NE1       29.3200   40.0380   66.5170 N.ar  302  TRP302     -0.2442
     41  CE2       29.7670   41.3250   66.6060 C.ar  302  TRP302      0.0810
     42  CE3       31.2600   42.7890   65.3860 C.ar  302  TRP302      0.0012
     43  CZ2       29.4900   42.3140   67.5660 C.ar  302  TRP302      0.0191
     44  CZ3       30.9760   43.7960   66.3260 C.ar  302  TRP302      0.0001
     45  CH2       30.0900   43.5440   67.4150 C.ar  302  TRP302      0.0015
     46  N         29.0020   34.4650   67.8890 N.3   352  GLU352     -0.1245
     47  CA        28.6700   35.4530   66.8330 C.3   352  GLU352      0.1567
     48  C         29.8480   35.6200   65.9010 C.2   352  GLU352      0.2260
     49  O         30.9990   35.4870   66.3340 O.2   352  GLU352     -0.2867
     50  CB        28.2950   36.8210   67.4100 C.3   352  GLU352      0.0388
     51  CG        27.1980   36.7610   68.5010 C.3   352  GLU352      0.1160
     52  CD        26.6040   38.1270   68.7820 C.2   352  GLU352      0.3649
     53  OE1       27.1870   39.1690   68.3590 O.co2 352  GLU352     -0.2457
     54  OE2       25.5720   38.1640   69.4800 O.co2 352  GLU352     -0.2457
     55  N         29.9060   39.0930   57.5020 N.3   358  TRP358     -0.1241
     56  CA        30.1190   40.0800   58.5670 C.3   358  TRP358      0.1605
     57  C         30.9790   41.2670   58.1340 C.2   358  TRP358      0.2264
     58  O         30.8360   42.3860   58.6670 O.2   358  TRP358     -0.2867
     59  CB        30.6350   39.4140   59.8640 C.3   358  TRP358      0.0550
     60  CG        29.5160   38.7530   60.6220 C.ar  358  TRP358      0.0003
     61  CD1       29.1130   37.4360   60.5360 C.ar  358  TRP358      0.0946
     62  CD2       28.6370   39.3870   61.5520 C.ar  358  TRP358      0.0152
     63  NE1       28.0220   37.2240   61.3760 N.ar  358  TRP358     -0.2442
     64  CE2       27.7190   38.4170   62.0000 C.ar  358  TRP358      0.0810
     65  CE3       28.5410   40.7000   62.0540 C.ar  358  TRP358      0.0012
     66  CZ2       26.7080   38.7090   62.9470 C.ar  358  TRP358      0.0191
     67  CZ3       27.5510   40.9950   63.0020 C.ar  358  TRP358      0.0001
     68  CH2       26.6410   40.0060   63.4380 C.ar  358  TRP358      0.0015
     69  N         28.1940   44.0340   57.4640 N.3   361  TRP361     -0.1241
     70  CA        26.9360   43.9350   58.2030 C.3   361  TRP361      0.1605
     71  C         26.3750   45.2670   58.6540 C.2   361  TRP361      0.2264
     72  O         25.1930   45.3680   59.0770 O.2   361  TRP361     -0.2867
     73  CB        27.1510   43.0690   59.4270 C.3   361  TRP361      0.0550
     74  CG        27.7960   43.7170   60.6220 C.ar  361  TRP361      0.0003
     75  CD1       29.1510   43.9610   60.8240 C.ar  361  TRP361      0.0946
     76  CD2       27.1450   44.1050   61.8250 C.ar  361  TRP361      0.0152
     77  NE1       29.3450   44.5110   62.0610 N.ar  361  TRP361     -0.2442
     78  CE2       28.1250   44.6010   62.6960 C.ar  361  TRP361      0.0810
     79  CE3       25.8030   44.1030   62.2440 C.ar  361  TRP361      0.0012
     80  CZ2       27.8180   45.0730   63.9560 C.ar  361  TRP361      0.0191
     81  CZ3       25.5100   44.5630   63.4770 C.ar  361  TRP361      0.0001
     82  CH2       26.5030   45.0450   64.3340 C.ar  361  TRP361      0.0015
     83  N         23.1820   32.2960   66.2170 N.3   398  HIS398     -0.1241
     84  CA        23.0620   33.7550   66.0610 C.3   398  HIS398      0.1621
     85  C         22.5660   34.0790   64.6590 C.2   398  HIS398      0.2264
     86  O         23.1790   33.6720   63.6570 O.2   398  HIS398     -0.2867
     87  CB        24.4190   34.4130   66.2920 C.3   398  HIS398      0.0745
     88  CG        24.3550   35.9050   66.3550 C.ar  398  HIS398      0.0817
     89  ND1       25.2950   36.7160   65.7500 N.ar  398  HIS398     -0.2268
     90  CD2       23.4400   36.7370   66.9200 C.ar  398  HIS398      0.1154
     91  CE1       24.9880   37.9800   65.9760 C.ar  398  HIS398      0.1986
     92  NE2       23.8810   38.0200   66.7060 N.ar  398  HIS398     -0.2212
     93  N         21.9490   37.5660   63.3640 N.3   400  GLU400     -0.1245
     94  CA        21.8810   39.0340   63.0980 C.3   400  GLU400      0.1567
     95  C         21.3550   39.1840   61.6650 C.2   400  GLU400      0.2260
     96  O         21.8760   38.5620   60.7440 O.2   400  GLU400     -0.2867
     97  CB        23.2490   39.6930   63.2390 C.3   400  GLU400      0.0388
     98  CG        23.2840   41.1250   62.6910 C.3   400  GLU400      0.1160
     99  CD        22.4130   42.0500   63.5280 C.2   400  GLU400      0.3649
    100  OE1       22.7100   42.2140   64.7260 O.co2 400  GLU400     -0.2457
    101  OE2       21.4450   42.6230   62.9750 O.co2 400  GLU400     -0.2457
    102  N         19.5810   33.6230   68.9090 N.3   428  LYS428     -0.1245
    103  CA        19.5820   35.0410   69.2190 C.3   428  LYS428      0.1561
    104  C         19.5040   35.7310   67.8740 C.2   428  LYS428      0.2260
    105  O         20.4050   35.5940   67.0510 O.2   428  LYS428     -0.2867
    106  CB        20.8930   35.4110   69.9150 C.3   428  LYS428      0.0271
    107  CG        21.2140   36.8880   69.9720 C.3   428  LYS428      0.0035
    108  CD        22.6030   37.0790   70.5970 C.3   428  LYS428      0.0206
    109  CE        22.7760   38.4620   71.1370 C.3   428  LYS428      0.1093
    110  NZ        22.9860   39.3740   70.0170 N.3   428  LYS428     -0.1314
    111  N         18.7360   39.4700   65.6030 N.3   430  GLY430     -0.1225
    112  CA        19.1040   40.8980   65.7350 C.3   430  GLY430      0.1811
    113  C         18.6230   41.6690   64.5280 C.2   430  GLY430      0.2280
    114  O         18.4770   41.1070   63.4300 O.2   430  GLY430     -0.2866
    115  N         19.9000   45.1130   63.5730 N.3   432  VAL432     -0.1245
    116  CA        20.6540   46.3650   63.5950 C.3   432  VAL432      0.1561
    117  C         20.6710   47.0980   62.2460 C.2   432  VAL432      0.2260
    118  O         21.0860   46.5540   61.2230 O.2   432  VAL432     -0.2867
    119  CB        22.1220   46.0610   64.0610 C.3   432  VAL432      0.0252
    120  CG1       22.9560   47.3390   63.8360 C.3   432  VAL432      0.0019
    121  CG2       22.0860   45.5920   65.5030 C.3   432  VAL432      0.0019
    122  N         17.0650   40.5840   69.6730 N.3   468  HIS468     -0.1226
    123  CA        17.5590   41.9150   69.9490 C.3   468  HIS468      0.1752
    124  C         16.9610   42.8780   68.9000 C.2   468  HIS468      0.2595
    125  O         16.6090   42.4540   67.7810 O.2   468  HIS468     -0.2718
    126  CB        19.1080   41.8830   69.9020 C.3   468  HIS468      0.0759
    127  CG        19.7620   41.4020   71.1750 C.ar  468  HIS468      0.0818
    128  ND1       19.3410   40.2990   71.9000 N.ar  468  HIS468     -0.2268
    129  CD2       20.8320   41.8970   71.8370 C.ar  468  HIS468      0.1154
    130  CE1       20.1170   40.1600   72.9680 C.ar  468  HIS468      0.1986
    131  NE2       21.0370   41.1020   72.9340 N.ar  468  HIS468     -0.2212
    132  N         16.8010   44.1450   69.3080 N.am  469  GLU469     -0.1979
    133  CA        16.2350   45.2480   68.4900 C.3   469  GLU469      0.1602
    134  C         14.7630   45.1110   68.1130 C.2   469  GLU469      0.2287
    135  O         14.2330   45.9640   67.3830 O.2   469  GLU469     -0.2864
    136  CB        17.0920   45.5790   67.2320 C.3   469  GLU469      0.0415
    137  CG        18.4910   46.1190   67.5860 C.3   469  GLU469      0.1163
    138  CD        19.4860   44.9790   67.9150 C.2   469  GLU469      0.3649
    139  OE1       19.4560   43.9410   67.2280 O.co2 469  GLU469     -0.2457
    140  OE2       20.3010   45.1720   68.8500 O.co2 469  GLU469     -0.2457
    141  N         16.2420   41.9470   73.7820 N.3   487  GLU487     -0.1245
    142  CA        17.0110   43.0520   74.3660 C.3   487  GLU487      0.1567
    143  C         16.0070   44.2020   74.4890 C.2   487  GLU487      0.2260
    144  O         15.3310   44.3170   75.5240 O.2   487  GLU487     -0.2867
    145  CB        18.1620   43.4110   73.4590 C.3   487  GLU487      0.0388
    146  CG        19.0530   44.4990   74.0940 C.3   487  GLU487      0.1160
    147  CD        20.3100   44.7130   73.2730 C.2   487  GLU487      0.3649
    148  OE1       20.2290   45.1930   72.1260 O.co2 487  GLU487     -0.2457
    149  OE2       21.3930   44.4050   73.8380 O.co2 487  GLU487     -0.2457
    150  N         25.8580   45.8180   76.5260 N.3   493  GLU493     -0.1245
    151  CA        26.7590   46.2390   75.4430 C.3   493  GLU493      0.1567
    152  C         27.1240   47.7230   75.5340 C.2   493  GLU493      0.2260
    153  O         28.2340   48.0830   75.1940 O.2   493  GLU493     -0.2867
    154  CB        26.1900   45.8780   74.0500 C.3   493  GLU493      0.0388
    155  CG        24.8290   46.5290   73.7840 C.3   493  GLU493      0.1160
    156  CD        24.3800   46.4110   72.3320 C.2   493  GLU493      0.3649
    157  OE1       25.2210   46.1320   71.4320 O.co2 493  GLU493     -0.2457
    158  OE2       23.1760   46.6580   72.0960 O.co2 493  GLU493     -0.2457
@<TRIPOS>BOND
     1    69    70    1
     2    55    56    1
     3    57    56    1
     4    57    58    2
     5    70    71    1
     6    70    73    1
     7    56    59    1
     8    71    72    2
     9    73    74    1
    10    59    60    1
    11    61    60   ar
    12    61    63   ar
    13    60    62   ar
    14    74    75   ar
    15    74    76   ar
    16    96    95    2
    17    75    77   ar
    18   118   117    2
    19    63    64   ar
    20    62    64   ar
    21    62    65   ar
    22    95    94    1
    23    76    79   ar
    24    76    78   ar
    25    35    34    2
    26    64    66   ar
    27    65    67   ar
    28    77    78   ar
    29    79    81   ar
    30   117   116    1
    31    34    33    1
    32    98    97    1
    33    98    99    1
    34    78    80   ar
    35    66    68   ar
    36   101    99   ar
    37    67    68   ar
    38    94    97    1
    39    94    93    1
    40   114   113    2
    41    81    82   ar
    42    36    33    1
    43    36    37    1
    44    99   100   ar
    45   115   116    1
    46   116   119    1
    47    86    85    2
    48    33    32    1
    49   120   119    1
    50    80    82   ar
    51   119   121    1
    52   113   112    1
    53    85    84    1
    54    37    38   ar
    55    37    39   ar
    56    42    39   ar
    57    42    44   ar
    58    38    40   ar
    59    39    41   ar
    60   111   112    1
    61    89    91   ar
    62    89    88   ar
    63    48    49    2
    64    48    47    1
    65    91    92   ar
    66    84    83    1
    67    84    87    1
    68    87    88    1
    69    44    45   ar
    70    88    90   ar
    71    40    41   ar
    72    41    43   ar
    73    92    90   ar
    74    47    50    1
    75    47    46    1
    76   105   104    2
    77   139   138   ar
    78   136   137    1
    79   136   133    1
    80   135   134    2
    81    50    51    1
    82    45    43   ar
    83   137   138    1
    84   125   124    2
    85   104   103    1
    86   138   140   ar
    87   134   133    1
    88    53    52   ar
    89   133   132    1
    90    51    52    1
    91    52    54   ar
    92   124   132   am
    93   124   123    1
    94   102   103    1
    95   103   106    1
    96   122   123    1
    97   126   123    1
    98   126   127    1
    99   106   107    1
   100   107   108    1
   101   110   109    1
   102     8     7   ar
   103   108   109    1
   104     9     7   ar
   105    24    25    1
   106     7     6    1
   107    31    29    1
   108   127   129   ar
   109   127   128   ar
   110   157   156   ar
   111    25    26    1
   112    25    28    1
   113    16    18   ar
   114    16    15   ar
   115    27    26    2
   116    13    12    2
   117   129   131   ar
   118   128   130   ar
   119    18    19   ar
   120     6     5    1
   121    11    10    1
   122    11    12    1
   123    11    14    1
   124   158   156   ar
   125   148   147   ar
   126    29    28    1
   127   156   155    1
   128     5     2    1
   129    28    30    1
   130    15    14    1
   131    15    17   ar
   132     1     2    1
   133   131   130   ar
   134   147   149   ar
   135   147   146    1
   136    19    17   ar
   137    19    21   ar
   138   145   146    1
   139   145   142    1
   140     2     3    1
   141   141   142    1
   142   155   154    1
   143    17    20   ar
   144     4     3    2
   145   154   151    1
   146    21    23   ar
   147   142   143    1
   148   143   144    2
   149   153   152    2
   150    20    22   ar
   151   151   152    1
   152   151   150    1
   153    23    22   ar
