@<TRIPOS>MOLECULE
tmp/2jkhA00.pdb
 186 184 0 0 0
SMALL
GASTEIGER

@<TRIPOS>ATOM
      1  N          4.3700    7.6020   16.0150 N.3    42  HIS42      -0.1241
      2  CA         3.5110    8.7920   15.9210 C.3    42  HIS42       0.1621
      3  C          4.2510   10.0610   16.3330 C.2    42  HIS42       0.2264
      4  O          3.8550   11.1660   15.9550 O.2    42  HIS42      -0.2867
      5  CB         2.1830    8.6170   16.6870 C.3    42  HIS42       0.0745
      6  CG         2.2840    8.8690   18.1570 C.ar   42  HIS42       0.0817
      7  ND1        2.3280    7.8540   19.0950 N.ar   42  HIS42      -0.2268
      8  CD2        2.3180   10.0280   18.8500 C.ar   42  HIS42       0.1154
      9  CE1        2.4060    8.3870   20.3020 C.ar   42  HIS42       0.1986
     10  NE2        2.3910    9.7010   20.1820 N.ar   42  HIS42      -0.2212
     11  N         -1.5550    5.9030   11.1110 N.3    82  LYS82      -0.1231
     12  CA        -1.8770    7.1230   11.8740 C.3    82  LYS82       0.1693
     13  C         -3.2760    7.1020   12.5010 C.2    82  LYS82       0.2592
     14  O         -3.4970    7.6770   13.5650 O.2    82  LYS82      -0.2718
     15  CB        -1.7150    8.3690   10.9840 C.3    82  LYS82       0.0285
     16  CG        -1.6990    9.6820   11.7340 C.3    82  LYS82       0.0035
     17  CD        -1.5950   10.8530   10.7740 C.3    82  LYS82       0.0206
     18  CE        -1.6420   12.1780   11.5100 C.3    82  LYS82       0.1093
     19  NZ        -1.4870   13.3200   10.5700 N.3    82  LYS82      -0.1314
     20  N         -4.2300    6.4600   11.8300 N.am   83  GLU83      -0.1966
     21  CA        -5.6250    6.4680   12.2900 C.3    83  GLU83       0.1733
     22  C         -5.8440    5.6500   13.5680 C.2    83  GLU83       0.2617
     23  O         -6.6190    6.0360   14.4450 O.2    83  GLU83      -0.2715
     24  CB        -6.5670    5.9710   11.1850 C.3    83  GLU83       0.0429
     25  CG        -6.8130    6.9730   10.0560 C.3    83  GLU83       0.1163
     26  CD        -5.6120    7.1530    9.1440 C.2    83  GLU83       0.3649
     27  OE1       -4.8650    6.1730    8.9280 O.co2  83  GLU83      -0.2457
     28  OE2       -5.4160    8.2770    8.6390 O.co2  83  GLU83      -0.2457
     29  N         -5.1580    4.5220   13.6740 N.am   84  THR84      -0.1937
     30  CA        -5.3710    3.6150   14.8120 C.3    84  THR84       0.2028
     31  C         -4.1800    3.6120   15.7800 C.2    84  THR84       0.2642
     32  O         -4.3000    3.0940   16.8950 O.2    84  THR84      -0.2714
     33  CB        -5.5870    2.1640   14.3520 C.3    84  THR84       0.1808
     34  OG1       -4.4540    1.7450   13.5840 O.3    84  THR84      -0.2208
     35  CG2       -6.8670    2.0290   13.4790 C.3    84  THR84       0.0379
     36  N         -3.0480    4.1660   15.3320 N.am   85  TYR85      -0.1973
     37  CA        -1.7240    4.0190   15.9820 C.3    85  TYR85       0.1639
     38  C         -1.3000    2.5570   16.0840 C.2    85  TYR85       0.2290
     39  O         -0.4840    2.1850   16.9400 O.2    85  TYR85      -0.2864
     40  CB        -1.6880    4.7170   17.3580 C.3    85  TYR85       0.0560
     41  CG        -1.5000    6.2120   17.3490 C.ar   85  TYR85      -0.0198
     42  CD1       -1.8210    6.9960   16.2260 C.ar   85  TYR85      -0.0009
     43  CD2       -1.0720    6.8720   18.5010 C.ar   85  TYR85      -0.0009
     44  CE1       -1.6640    8.3650   16.2500 C.ar   85  TYR85       0.0417
     45  CE2       -0.9150    8.2430   18.5440 C.ar   85  TYR85       0.0417
     46  CZ        -1.2210    8.9970   17.4010 C.ar   85  TYR85       0.1957
     47  OH        -1.0570   10.3490   17.4300 O.3    85  TYR85      -0.2866
     48  N          2.2650   16.0260   30.5530 N.3   132  ARG132     -0.1245
     49  CA         1.2980   16.7660   31.3690 C.3   132  ARG132      0.1563
     50  C          0.9820   16.0930   32.7120 C.2   132  ARG132      0.2260
     51  O          0.9000   14.8650   32.8100 O.2   132  ARG132     -0.2867
     52  CB        -0.0050   16.9350   30.5880 C.3   132  ARG132      0.0307
     53  CG         0.1450   17.6720   29.2770 C.3   132  ARG132      0.0489
     54  CD        -1.2240   17.8790   28.6340 C.3   132  ARG132      0.2205
     55  NE        -1.1060   18.5620   27.3480 N.pl3 132  ARG132     -0.0865
     56  CZ        -2.1200   18.7670   26.5110 C.cat 132  ARG132      0.5346
     57  NH1       -3.3430   18.3370   26.8120 N.pl3 132  ARG132      0.1354
     58  NH2       -1.9060   19.4050   25.3620 N.pl3 132  ARG132      0.1354
     59  N         -4.8290   16.1360   32.5380 N.3   135  GLU135     -0.1245
     60  CA        -5.2280   16.1140   31.1450 C.3   135  GLU135      0.1567
     61  C         -5.0920   17.4610   30.4090 C.2   135  GLU135      0.2260
     62  O         -4.4870   17.5130   29.3370 O.2   135  GLU135     -0.2867
     63  CB        -6.6380   15.5450   30.9890 C.3   135  GLU135      0.0388
     64  CG        -7.0610   15.4380   29.5350 C.3   135  GLU135      0.1160
     65  CD        -8.4140   14.8070   29.3400 C.2   135  GLU135      0.3649
     66  OE1       -8.7510   13.8230   30.0320 O.co2 135  GLU135     -0.2457
     67  OE2       -9.1380   15.2900   28.4540 O.co2 135  GLU135     -0.2457
     68  N        -11.8420    2.9730   20.6340 N.3   162  PHE162     -0.1241
     69  CA       -11.0000    2.7310   19.4710 C.3   162  PHE162      0.1605
     70  C        -10.4700    1.3110   19.5250 C.2   162  PHE162      0.2264
     71  O        -10.3410    0.7330   20.6000 O.2   162  PHE162     -0.2867
     72  CB        -9.8230    3.7180   19.4290 C.3   162  PHE162      0.0534
     73  CG       -10.2210    5.1590   19.2640 C.ar  162  PHE162     -0.0203
     74  CD1      -10.5670    5.6670   18.0070 C.ar  162  PHE162     -0.0042
     75  CD2      -10.2120    6.0260   20.3600 C.ar  162  PHE162     -0.0042
     76  CE1      -10.9210    7.0100   17.8560 C.ar  162  PHE162     -0.0003
     77  CE2      -10.5620    7.3490   20.2230 C.ar  162  PHE162     -0.0003
     78  CZ       -10.9210    7.8510   18.9630 C.ar  162  PHE162     -0.0000
     79  N         -2.0250    8.2490   35.4710 N.3   179  ASP179     -0.1225
     80  CA        -1.8700    7.7770   34.0860 C.3   179  ASP179      0.1805
     81  C         -0.6900    8.4830   33.4820 C.2   179  ASP179      0.2598
     82  O         -0.1830    9.4470   34.0360 O.2   179  ASP179     -0.2718
     83  CB        -3.1490    8.1730   33.3180 C.3   179  ASP179      0.1424
     84  CG        -3.3790    7.4230   32.0070 C.2   179  ASP179      0.3668
     85  OD1       -2.5670    6.5720   31.5540 O.co2 179  ASP179     -0.2456
     86  OD2       -4.4340    7.7660   31.3810 O.co2 179  ASP179     -0.2456
     87  N         -0.2350    8.0090   32.3260 N.am  180  ALA180     -0.1966
     88  CA         0.6020    8.8480   31.4640 C.3   180  ALA180      0.1728
     89  C         -0.2870    9.8690   30.7510 C.2   180  ALA180      0.2616
     90  O         -1.5220    9.8370   30.8750 O.2   180  ALA180     -0.2715
     91  CB         1.3810    7.9880   30.4770 C.3   180  ALA180      0.0334
     92  N          0.3330   10.7780   30.0090 N.am  181  CYS181     -0.1954
     93  CA        -0.4530   11.8000   29.3370 C.3   181  CYS181      0.1843
     94  C          0.3510   12.3660   28.1680 C.2   181  CYS181      0.2625
     95  O          1.4910   11.9500   27.8870 O.2   181  CYS181     -0.2714
     96  CB        -0.8560   12.8890   30.3430 C.3   181  CYS181      0.0997
     97  SG        -2.2210   13.9910   29.8800 S.3   181  CYS181     -0.0797
     98  N         -0.2640   13.3210   27.4720 N.am  182  GLN182     -0.1977
     99  CA         0.3970   14.0200   26.3650 C.3   182  GLN182      0.1601
    100  C          1.7830   14.5210   26.7880 C.2   182  GLN182      0.2287
    101  O          1.9310   15.1030   27.8710 O.2   182  GLN182     -0.2864
    102  CB        -0.4940   15.1870   25.9190 C.3   182  GLN182      0.0394
    103  CG         0.1840   16.2270   25.0210 C.3   182  GLN182      0.0908
    104  CD         0.3300   15.7770   23.6010 C.2   182  GLN182      0.2608
    105  OE1        1.4390   15.7710   23.0540 O.2   182  GLN182     -0.2717
    106  NE2       -0.7880   15.4170   22.9700 N.am  182  GLN182     -0.0878
    107  N          4.1580   10.3450   25.6180 N.3   185  SER185     -0.1217
    108  CA         4.0750    9.3420   24.5490 C.3   185  SER185      0.1889
    109  C          5.4390    9.2220   23.8680 C.2   185  SER185      0.2288
    110  O          6.1710   10.1970   23.7480 O.2   185  SER185     -0.2866
    111  CB         2.9160    9.5920   23.5680 C.3   185  SER185      0.2089
    112  OG         3.1800   10.7150   22.7400 O.3   185  SER185     -0.2183
    113  N          4.8900    4.2570   25.4970 N.3   203  VAL203     -0.1231
    114  CA         3.6890    5.0190   25.7340 C.3   203  VAL203      0.1692
    115  C          3.0920    5.4210   24.3770 C.2   203  VAL203      0.2593
    116  O          3.8100    6.0430   23.5780 O.2   203  VAL203     -0.2718
    117  CB         4.0260    6.2810   26.5530 C.3   203  VAL203      0.0266
    118  CG1        2.7490    7.0910   26.8080 C.3   203  VAL203      0.0020
    119  CG2        4.6990    5.9340   27.9010 C.3   203  VAL203      0.0020
    120  N          1.8210    5.0620   24.1220 N.am  204  SER204     -0.1938
    121  CA         1.2760    5.2640   22.7740 C.3   204  SER204      0.2055
    122  C          0.1230    6.2620   22.6990 C.2   204  SER204      0.2643
    123  O          0.2570    7.3090   22.0480 O.2   204  SER204     -0.2714
    124  CB         0.9710    3.9230   22.1450 C.3   204  SER204      0.2130
    125  OG         0.5390    4.0920   20.7870 O.3   204  SER204     -0.2179
    126  N         -0.9940    5.9740   23.3660 N.am  205  TRP205     -0.1959
    127  CA        -2.1480    6.8880   23.3320 C.3   205  TRP205      0.1771
    128  C         -3.0880    6.6270   24.4770 C.2   205  TRP205      0.2620
    129  O         -2.9780    5.6310   25.2040 O.2   205  TRP205     -0.2715
    130  CB        -2.9090    6.8210   21.9990 C.3   205  TRP205      0.0590
    131  CG        -3.4300    5.4870   21.6280 C.ar  205  TRP205      0.0006
    132  CD1       -2.7400    4.4940   20.9840 C.ar  205  TRP205      0.0946
    133  CD2       -4.7620    4.9840   21.8280 C.ar  205  TRP205      0.0152
    134  NE1       -3.5560    3.4060   20.7810 N.ar  205  TRP205     -0.2442
    135  CE2       -4.8020    3.6840   21.2960 C.ar  205  TRP205      0.0810
    136  CE3       -5.9120    5.5050   22.4190 C.ar  205  TRP205      0.0012
    137  CZ2       -5.9770    2.9010   21.3200 C.ar  205  TRP205      0.0191
    138  CZ3       -7.0670    4.7430   22.4270 C.ar  205  TRP205      0.0001
    139  CH2       -7.0880    3.4570   21.9080 C.ar  205  TRP205      0.0015
    140  N         -4.0230    7.5490   24.6500 N.am  206  GLY206     -0.1940
    141  CA        -5.1440    7.3390   25.5430 C.3   206  GLY206      0.2014
    142  C         -6.2670    8.2750   25.1430 C.2   206  GLY206      0.2639
    143  O         -6.0440    9.2070   24.3710 O.2   206  GLY206     -0.2714
    144  N         -7.4540    8.0350   25.6840 N.am  207  GLU207     -0.1963
    145  CA        -8.5830    8.9440   25.4720 C.3   207  GLU207      0.1733
    146  C         -8.5970    9.9000   26.6440 C.2   207  GLU207      0.2617
    147  O         -9.0810    9.5540   27.7090 O.2   207  GLU207     -0.2715
    148  CB        -9.8890    8.1420   25.3970 C.3   207  GLU207      0.0429
    149  CG        -9.9570    7.2060   24.2090 C.3   207  GLU207      0.1163
    150  CD       -11.2640    6.4250   24.1580 C.2   207  GLU207      0.3649
    151  OE1      -12.3410    7.0580   24.1100 O.co2 207  GLU207     -0.2457
    152  OE2      -11.2210    5.2010   24.1760 O.co2 207  GLU207     -0.2457
    153  N         -8.0290   11.0890   26.4770 N.am  208  GLY208     -0.1940
    154  CA        -7.7440   11.9590   27.6040 C.3   208  GLY208      0.2014
    155  C         -6.5900   11.3800   28.4120 C.2   208  GLY208      0.2639
    156  O         -5.7750   10.5980   27.8940 O.2   208  GLY208     -0.2714
    157  N         -6.5530   11.7440   29.6850 N.am  209  CYS209     -0.1967
    158  CA        -5.5550   11.1980   30.6260 C.3   209  CYS209      0.1712
    159  C         -6.2130   11.0070   31.9640 C.2   209  CYS209      0.2296
    160  O         -6.8700   11.9230   32.4640 O.2   209  CYS209     -0.2864
    161  CB        -4.3830   12.1560   30.7940 C.3   209  CYS209      0.0983
    162  SG        -3.6750   12.7150   29.2600 S.3   209  CYS209     -0.0798
    163  N         -4.4130    3.6410   29.9600 N.3   216  GLY216     -0.1210
    164  CA        -3.3400    4.0760   29.0770 C.3   216  GLY216      0.1956
    165  C         -3.0810    2.9580   28.0690 C.2   216  GLY216      0.2612
    166  O         -3.1330    1.7790   28.4430 O.2   216  GLY216     -0.2717
    167  N         -2.7810    3.3250   26.8080 N.am  217  ILE217     -0.1965
    168  CA        -2.5030    2.3480   25.7520 C.3   217  ILE217      0.1727
    169  C         -1.0270    2.3890   25.3350 C.2   217  ILE217      0.2616
    170  O         -0.4540    3.4670   25.0960 O.2   217  ILE217     -0.2715
    171  CB        -3.4210    2.5180   24.4920 C.3   217  ILE217      0.0290
    172  CG1       -4.8880    2.8190   24.8940 C.3   217  ILE217      0.0022
    173  CG2       -3.3040    1.2920   23.6040 C.3   217  ILE217      0.0023
    174  CD1       -5.6010    1.7560   25.6990 C.3   217  ILE217      0.0001
    175  N         -0.4270    1.2170   25.3140 N.am  218  TYR218     -0.1974
    176  CA         1.0030    1.0630   25.0880 C.3   218  TYR218      0.1639
    177  C          1.2950    0.1550   23.9260 C.2   218  TYR218      0.2290
    178  O          0.5860   -0.8470   23.7260 O.2   218  TYR218     -0.2864
    179  CB         1.6500    0.4560   26.3550 C.3   218  TYR218      0.0560
    180  CG         1.5300    1.3520   27.5660 C.ar  218  TYR218     -0.0198
    181  CD1        2.5920    2.1560   27.9430 C.ar  218  TYR218     -0.0009
    182  CD2        0.3470    1.4580   28.2770 C.ar  218  TYR218     -0.0009
    183  CE1        2.5040    3.0320   29.0300 C.ar  218  TYR218      0.0417
    184  CE2        0.2270    2.3420   29.3780 C.ar  218  TYR218      0.0417
    185  CZ         1.3120    3.1110   29.7390 C.ar  218  TYR218      0.1957
    186  OH         1.2430    3.9890   30.8150 O.3   218  TYR218     -0.2866
@<TRIPOS>BOND
     1    28    26   ar
     2    27    26   ar
     3    26    25    1
     4    25    24    1
     5    19    18    1
     6    17    18    1
     7    17    16    1
     8    15    16    1
     9    15    12    1
    10    11    12    1
    11    24    21    1
    12    20    21    1
    13    20    13   am
    14    12    13    1
    15    21    22    1
    16    13    14    2
    17    35    33    1
    18    22    29   am
    19    22    23    2
    20    34    33    1
    21    29    30    1
    22    33    30    1
    23    30    31    1
    24    36    31   am
    25    36    37    1
    26    31    32    2
    27     2     1    1
    28     2     3    1
    29     2     5    1
    30     4     3    2
    31    37    38    1
    32    37    40    1
    33    38    39    2
    34    42    44   ar
    35    42    41   ar
    36    44    46   ar
    37     5     6    1
    38    41    40    1
    39    41    43   ar
    40    46    47    1
    41    46    45   ar
    42    76    74   ar
    43    76    78   ar
    44    74    73   ar
    45     6     8   ar
    46     6     7   ar
    47    43    45   ar
    48     8    10   ar
    49    78    77   ar
    50     7     9   ar
    51    73    72    1
    52    73    75   ar
    53    72    69    1
    54    69    70    1
    55    69    68    1
    56    70    71    2
    57    10     9   ar
    58    77    75   ar
    59   134   132   ar
    60   134   135   ar
    61   125   124    1
    62   132   131   ar
    63   135   137   ar
    64   135   133   ar
    65   137   139   ar
    66   131   133   ar
    67   131   130    1
    68   133   136   ar
    69   139   138   ar
    70   130   127    1
    71   123   122    2
    72   124   121    1
    73   136   138   ar
    74   122   121    1
    75   122   126   am
    76   112   111    1
    77   121   120    1
    78   106   104   am
    79   105   104    2
    80   127   126    1
    81   127   128    1
    82   111   108    1
    83   116   115    2
    84   104   103    1
    85   173   171    1
    86   178   177    2
    87   110   109    2
    88   109   108    1
    89   177   176    1
    90   151   150   ar
    91   120   115   am
    92   150   152   ar
    93   150   149    1
    94   149   148    1
    95   143   142    2
    96   115   114    1
    97   128   140   am
    98   128   129    2
    99   171   172    1
   100   171   168    1
   101   108   107    1
   102   140   141    1
   103   172   174    1
   104   103   102    1
   105   176   175    1
   106   176   179    1
   107   170   169    2
   108   142   141    1
   109   142   144   am
   110   175   169   am
   111   169   168    1
   112    58    56    1
   113   148   145    1
   114   145   144    1
   115   145   146    1
   116   113   114    1
   117   114   117    1
   118   168   167    1
   119   102    99    1
   120   179   180    1
   121    99   100    1
   122    99    98    1
   123   153   146   am
   124   153   154    1
   125    56    57    1
   126    56    55    2
   127   117   118    1
   128   117   119    1
   129   146   147    2
   130   100   101    2
   131   167   165   am
   132    55    54    1
   133    98    94   am
   134   180   181   ar
   135   180   182   ar
   136   154   155    1
   137    95    94    2
   138   156   155    2
   139   181   183   ar
   140   165   166    2
   141   165   164    1
   142    94    93    1
   143   182   184   ar
   144   155   157   am
   145    67    65   ar
   146    54    53    1
   147   183   185   ar
   148   164   163    1
   149   162    97    1
   150   162   161    1
   151    53    52    1
   152    62    61    2
   153    93    92    1
   154    93    96    1
   155    65    64    1
   156    65    66   ar
   157   184   185   ar
   158    64    63    1
   159   157   158    1
   160   185   186    1
   161    97    96    1
   162    92    89   am
   163    61    60    1
   164    91    88    1
   165    48    49    1
   166    52    49    1
   167   158   161    1
   168   158   159    1
   169    89    90    2
   170    89    88    1
   171    63    60    1
   172    60    59    1
   173    49    50    1
   174    86    84   ar
   175    88    87    1
   176    85    84   ar
   177   159   160    2
   178    84    83    1
   179    87    81   am
   180    50    51    2
   181    83    80    1
   182    81    82    2
   183    81    80    1
   184    80    79    1
