@<TRIPOS>MOLECULE
tmp/2jkiB00.pdb
 163 153 0 0 0
SMALL
GASTEIGER

@<TRIPOS>ATOM
      1  N         42.5070  -71.9920   12.8870 N.3    41  GLU41      -0.1245
      2  CA        41.2510  -71.4890   13.4010 C.3    41  GLU41       0.1567
      3  C         40.9510  -72.0360   14.7880 C.2    41  GLU41       0.2260
      4  O         40.3460  -71.3660   15.6040 O.2    41  GLU41      -0.2867
      5  CB        40.1140  -71.8180   12.4320 C.3    41  GLU41       0.0388
      6  CG        40.1660  -71.0000   11.1760 C.3    41  GLU41       0.1160
      7  CD        40.2330  -69.4930   11.4610 C.2    41  GLU41       0.3649
      8  OE1       39.6190  -69.0110   12.4710 O.co2  41  GLU41      -0.2457
      9  OE2       40.9030  -68.7980   10.6540 O.co2  41  GLU41      -0.2457
     10  N         43.4300  -70.7300   17.2960 N.3    44  SER44      -0.1202
     11  CA        43.0490  -69.3580   17.5520 C.3    44  SER44       0.2020
     12  C         41.8870  -69.2800   18.5150 C.2    44  SER44       0.2619
     13  O         41.9990  -68.6860   19.5880 O.2    44  SER44      -0.2717
     14  CB        42.6520  -68.6390   16.2770 C.3    44  SER44       0.2103
     15  OG        41.9210  -67.4720   16.6350 O.3    44  SER44      -0.2182
     16  N         40.7620  -69.8670   18.1050 N.am   45  ASN45      -0.1960
     17  CA        39.5130  -69.7570   18.8490 C.3    45  ASN45       0.1819
     18  C         39.8510  -70.1250   20.2920 C.2    45  ASN45       0.2622
     19  O         39.2390  -69.6510   21.2540 O.2    45  ASN45      -0.2715
     20  CB        38.3830  -70.6180   18.2120 C.3    45  ASN45       0.1195
     21  CG        37.7730  -69.9830   16.8740 C.2    45  ASN45       0.2630
     22  OD1       38.1010  -68.8490   16.3980 O.2    45  ASN45      -0.2716
     23  ND2       36.8740  -70.7490   16.2830 N.am   45  ASN45      -0.0877
     24  N         40.9100  -70.9110   20.4250 N.am   46  SER46      -0.1950
     25  CA        41.3810  -71.3690   21.7220 C.3    46  SER46       0.1924
     26  C         42.2450  -70.3520   22.4590 C.2    46  SER46       0.2314
     27  O         42.1940  -70.2630   23.6740 O.2    46  SER46      -0.2863
     28  CB        42.1510  -72.6610   21.5520 C.3    46  SER46       0.2116
     29  OG        41.7630  -73.5470   22.5640 O.3    46  SER46      -0.2180
     30  N         41.8900  -67.0230   21.9600 N.3    48  ASP48      -0.1225
     31  CA        40.8370  -66.0740   22.3160 C.3    48  ASP48       0.1805
     32  C         40.1740  -66.4510   23.6530 C.2    48  ASP48       0.2597
     33  O         39.8320  -65.5870   24.4700 O.2    48  ASP48      -0.2718
     34  CB        39.7760  -66.0000   21.2030 C.3    48  ASP48       0.1424
     35  CG        40.3640  -65.6440   19.8560 C.2    48  ASP48       0.3668
     36  OD1       39.6090  -65.6890   18.8590 O.co2  48  ASP48      -0.2456
     37  OD2       41.5750  -65.3210   19.7930 O.co2  48  ASP48      -0.2456
     38  N         39.9880  -67.7490   23.8650 N.am   49  ALA49      -0.1979
     39  CA        39.2910  -68.2120   25.0510 C.3    49  ALA49       0.1597
     40  C         40.1600  -67.9990   26.2740 C.2    49  ALA49       0.2287
     41  O         39.6620  -67.6240   27.3340 O.2    49  ALA49      -0.2864
     42  CB        38.9040  -69.6750   24.9050 C.3    49  ALA49       0.0319
     43  N         40.2390  -64.5220   27.6020 N.3    52  LYS52      -0.1245
     44  CA        39.0600  -64.1420   28.3830 C.3    52  LYS52       0.1561
     45  C         39.2020  -64.5090   29.8450 C.2    52  LYS52       0.2260
     46  O         38.9860  -63.6760   30.7250 O.2    52  LYS52      -0.2867
     47  CB        37.7650  -64.7230   27.7960 C.3    52  LYS52       0.0271
     48  CG        37.3850  -64.1220   26.4190 C.3    52  LYS52       0.0035
     49  CD        36.0930  -64.7210   25.8400 C.3    52  LYS52       0.0206
     50  CE        36.0110  -64.5700   24.3190 C.3    52  LYS52       0.1093
     51  NZ        34.8460  -65.3110   23.7370 N.3    52  LYS52      -0.1314
     52  N         42.3700  -76.7650   25.8510 N.3    87  ASP87      -0.1239
     53  CA        42.8380  -75.5200   26.4370 C.3    87  ASP87       0.1674
     54  C         42.3030  -75.3580   27.8470 C.2    87  ASP87       0.2266
     55  O         41.3370  -76.0070   28.2510 O.2    87  ASP87      -0.2867
     56  CB        42.3860  -74.3240   25.5910 C.3    87  ASP87       0.1410
     57  CG        40.8700  -74.3010   25.3600 C.2    87  ASP87       0.3668
     58  OD1       40.1350  -73.7240   26.2010 O.co2  87  ASP87      -0.2456
     59  OD2       40.4130  -74.8470   24.3220 O.co2  87  ASP87      -0.2456
     60  N         38.5320  -69.9710   28.9960 N.3    90  ILE90      -0.1231
     61  CA        37.4040  -69.6430   29.8690 C.3    90  ILE90       0.1692
     62  C         36.2760  -70.6720   29.8250 C.2    90  ILE90       0.2593
     63  O         35.4860  -70.7720   30.7670 O.2    90  ILE90      -0.2718
     64  CB        36.8390  -68.2690   29.5690 C.3    90  ILE90       0.0266
     65  CG1       35.7300  -67.9400   30.5570 C.3    90  ILE90       0.0019
     66  CG2       36.3020  -68.2420   28.2040 C.3    90  ILE90       0.0020
     67  CD1       35.1660  -66.5690   30.3420 C.3    90  ILE90       0.0001
     68  N         36.2170  -71.4420   28.7400 N.am   91  GLY91      -0.1942
     69  CA        35.2570  -72.5280   28.6200 C.3    91  GLY91       0.2014
     70  C         33.8750  -72.0530   28.2220 C.2    91  GLY91       0.2638
     71  O         33.6360  -70.8560   28.0620 O.2    91  GLY91      -0.2714
     72  N         32.9550  -72.9920   28.0500 N.am   92  MET92      -0.1976
     73  CA        31.5810  -72.6270   27.7290 C.3    92  MET92       0.1605
     74  C         30.5510  -73.1990   28.7100 C.2    92  MET92       0.2287
     75  O         30.6970  -74.3200   29.2060 O.2    92  MET92      -0.2864
     76  CB        31.2530  -73.0400   26.3050 C.3    92  MET92       0.0413
     77  CG        32.2120  -72.4510   25.2880 C.3    92  MET92       0.0598
     78  SD        31.8060  -72.9940   23.6250 S.3    92  MET92      -0.1393
     79  CE        33.3820  -73.6160   23.1060 C.3    92  MET92       0.0692
     80  N         26.4350  -70.6180   20.6110 N.3   100  ASN100     -0.1225
     81  CA        27.5520  -70.3150   19.7220 C.3   100  ASN100      0.1785
     82  C         27.7980  -71.4000   18.6970 C.2   100  ASN100      0.2597
     83  O         28.0370  -71.1320   17.5260 O.2   100  ASN100     -0.2718
     84  CB        28.8070  -70.0340   20.5390 C.3   100  ASN100      0.1169
     85  CG        28.6180  -68.8720   21.4840 C.2   100  ASN100      0.2627
     86  OD1       29.4290  -68.6370   22.3640 O.2   100  ASN100     -0.2716
     87  ND2       27.5370  -68.1350   21.3000 N.am  100  ASN100     -0.0877
     88  N         27.7060  -72.6350   19.1390 N.am  101  LEU101     -0.1980
     89  CA        27.9740  -73.7440   18.2560 C.3   101  LEU101      0.1596
     90  C         26.7320  -74.2650   17.5260 C.2   101  LEU101      0.2287
     91  O         26.5390  -75.4790   17.4220 O.2   101  LEU101     -0.2864
     92  CB        28.6640  -74.8690   19.0350 C.3   101  LEU101      0.0297
     93  CG        30.0090  -74.4780   19.6430 C.3   101  LEU101      0.0022
     94  CD1       30.8610  -75.6940   19.7950 C.3   101  LEU101      0.0001
     95  CD2       30.6950  -73.4920   18.7260 C.3   101  LEU101      0.0001
     96  N         25.4140  -66.1480   13.3110 N.3   106  ARG106     -0.1245
     97  CA        25.9790  -64.8000   13.2430 C.3   106  ARG106      0.1563
     98  C         25.9090  -64.2740   11.8040 C.2   106  ARG106      0.2260
     99  O         25.7280  -65.0480   10.8560 O.2   106  ARG106     -0.2867
    100  CB        27.4080  -64.7590   13.7720 C.3   106  ARG106      0.0307
    101  CG        27.5060  -64.8580   15.2750 C.3   106  ARG106      0.0489
    102  CD        28.9660  -64.9920   15.7280 C.3   106  ARG106      0.2205
    103  NE        29.1640  -65.4350   17.1220 N.pl3 106  ARG106     -0.0865
    104  CZ        28.2220  -65.7950   18.0080 C.cat 106  ARG106      0.5346
    105  NH1       26.9090  -65.7960   17.7280 N.pl3 106  ARG106      0.1354
    106  NH2       28.6150  -66.1660   19.2210 N.pl3 106  ARG106      0.1354
    107  N         37.4170  -67.9010    8.7320 N.3   126  GLY126     -0.1225
    108  CA        37.7090  -67.3140   10.0190 C.3   126  GLY126      0.1811
    109  C         37.2540  -65.8740   10.0920 C.2   126  GLY126      0.2280
    110  O         36.5290  -65.4940   11.0090 O.2   126  GLY126     -0.2866
    111  N         33.6110  -65.0420   10.9860 N.3   129  GLY129     -0.1210
    112  CA        33.0060  -65.3600   12.2710 C.3   129  GLY129      0.1956
    113  C         32.3470  -66.7230   12.3790 C.2   129  GLY129      0.2612
    114  O         31.4670  -66.9360   13.2160 O.2   129  GLY129     -0.2717
    115  N         32.7800  -67.6550   11.5410 N.am  130  VAL130     -0.1965
    116  CA        32.3270  -69.0310   11.6410 C.3   130  VAL130      0.1727
    117  C         33.5210  -69.9880   11.5850 C.2   130  VAL130      0.2617
    118  O         33.4330  -71.0740   11.0320 O.2   130  VAL130     -0.2715
    119  CB        31.3370  -69.3350   10.5300 C.3   130  VAL130      0.0290
    120  CG1       30.0890  -68.5150   10.7320 C.3   130  VAL130      0.0023
    121  CG2       31.9470  -68.9760    9.2220 C.3   130  VAL130      0.0023
    122  N         34.6350  -69.5700   12.1800 N.am  131  GLY131     -0.1940
    123  CA        35.8640  -70.3410   12.1700 C.3   131  GLY131      0.2014
    124  C         35.7350  -71.7720   12.6520 C.2   131  GLY131      0.2639
    125  O         36.3880  -72.6770   12.1420 O.2   131  GLY131     -0.2714
    126  N         34.8860  -71.9760   13.6460 N.am  132  PHE132     -0.1959
    127  CA        34.7480  -73.2720   14.3140 C.3   132  PHE132      0.1771
    128  C         34.4780  -74.3910   13.3500 C.2   132  PHE132      0.2619
    129  O         35.0540  -75.4700   13.4680 O.2   132  PHE132     -0.2715
    130  CB        33.6050  -73.2190   15.3250 C.3   132  PHE132      0.0574
    131  CG        33.1670  -74.5540   15.8190 C.ar  132  PHE132     -0.0200
    132  CD1       33.8830  -75.2100   16.7950 C.ar  132  PHE132     -0.0042
    133  CD2       32.0310  -75.1370   15.3240 C.ar  132  PHE132     -0.0042
    134  CE1       33.4790  -76.4270   17.2660 C.ar  132  PHE132     -0.0003
    135  CE2       31.6290  -76.3520   15.7810 C.ar  132  PHE132     -0.0003
    136  CZ        32.3580  -77.0010   16.7620 C.ar  132  PHE132     -0.0000
    137  N         33.5930  -74.1220   12.3980 N.am  133  TYR133     -0.1974
    138  CA        33.0960  -75.1510   11.5040 C.3   133  TYR133      0.1639
    139  C         34.1300  -75.5840   10.4830 C.2   133  TYR133      0.2290
    140  O         33.9420  -76.5820    9.7840 O.2   133  TYR133     -0.2864
    141  CB        31.8080  -74.6910   10.8250 C.3   133  TYR133      0.0560
    142  CG        30.7570  -74.2150   11.8150 C.ar  133  TYR133     -0.0198
    143  CD1       29.9130  -75.1170   12.4770 C.ar  133  TYR133     -0.0009
    144  CD2       30.6130  -72.8680   12.0910 C.ar  133  TYR133     -0.0009
    145  CE1       28.9540  -74.6790   13.3710 C.ar  133  TYR133      0.0417
    146  CE2       29.6660  -72.4240   12.9850 C.ar  133  TYR133      0.0417
    147  CZ        28.8380  -73.3290   13.6220 C.ar  133  TYR133      0.1957
    148  OH        27.9060  -72.8490   14.5160 O.3   133  TYR133     -0.2866
    149  N         38.2460  -76.4180   27.3180 N.3   179  THR179     -0.1218
    150  CA        37.5710  -77.0700   26.2160 C.3   179  THR179      0.1862
    151  C         38.4860  -78.0580   25.5060 C.2   179  THR179      0.2287
    152  O         39.6680  -77.8010   25.3140 O.2   179  THR179     -0.2866
    153  CB        37.0720  -76.0230   25.2130 C.3   179  THR179      0.1770
    154  OG1       36.9720  -74.7330   25.8450 O.3   179  THR179     -0.2211
    155  CG2       35.7380  -76.4240   24.6870 C.3   179  THR179      0.0375
    156  N         38.4010  -80.1340   22.1180 N.3   181  MET181     -0.1245
    157  CA        37.8150  -80.5080   20.8340 C.3   181  MET181      0.1570
    158  C         38.4860  -81.7560   20.2760 C.2   181  MET181      0.2261
    159  O         39.7130  -81.8280   20.1600 O.2   181  MET181     -0.2867
    160  CB        37.8940  -79.3730   19.8150 C.3   181  MET181      0.0387
    161  CG        37.2590  -78.1070   20.2880 C.3   181  MET181      0.0595
    162  SD        36.6740  -77.2040   18.8750 S.3   181  MET181     -0.1393
    163  CE        37.0770  -75.4870   19.3140 C.3   181  MET181      0.0692
@<TRIPOS>BOND
     1   107   108    1
     2   121   119    1
     3   140   139    2
     4   108   109    1
     5   109   110    2
     6   139   138    1
     7   119   120    1
     8   119   116    1
     9     9     7   ar
    10   141   138    1
    11   141   142    1
    12    99    98    2
    13   111   112    1
    14   118   117    2
    15     6     7    1
    16     6     5    1
    17     7     8   ar
    18   138   137    1
    19   115   116    1
    20   115   113   am
    21   117   116    1
    22   117   122   am
    23    98    97    1
    24   142   144   ar
    25   142   143   ar
    26   144   146   ar
    27   125   124    2
    28   123   122    1
    29   123   124    1
    30   112   113    1
    31   113   114    2
    32   137   128   am
    33     5     2    1
    34   143   145   ar
    35   124   126   am
    36     1     2    1
    37   146   147   ar
    38    97    96    1
    39    97   100    1
    40   128   129    2
    41   128   127    1
    42   145   147   ar
    43     2     3    1
    44   147   148    1
    45   126   127    1
    46   100   101    1
    47   127   130    1
    48     3     4    2
    49   101   102    1
    50   133   135   ar
    51   133   131   ar
    52   130   131    1
    53   102   103    1
    54   135   136   ar
    55   131   132   ar
    56    14    15    1
    57    14    11    1
    58    23    21   am
    59    22    21    2
    60   136   134   ar
    61   132   134   ar
    62    21    20    1
    63   103   104    2
    64    10    11    1
    65    91    90    2
    66    83    82    2
    67    90    89    1
    68    11    12    1
    69   105   104    1
    70   104   106    1
    71    16    12   am
    72    16    17    1
    73    20    17    1
    74    89    92    1
    75    89    88    1
    76    12    13    2
    77    82    88   am
    78    82    81    1
    79    95    93    1
    80    17    18    1
    81    36    35   ar
    82   162   163    1
    83   162   161    1
    84    92    93    1
    85    93    94    1
    86    81    84    1
    87    81    80    1
    88    37    35   ar
    89   160   161    1
    90   160   157    1
    91    35    34    1
    92   159   158    2
    93   158   157    1
    94    18    24   am
    95    18    19    2
    96    24    25    1
    97    84    85    1
    98   157   156    1
    99    34    31    1
   100    87    85   am
   101    85    86    2
   102    28    25    1
   103    28    29    1
   104    25    26    1
   105    30    31    1
   106    31    32    1
   107    26    27    2
   108    79    78    1
   109    78    77    1
   110    32    38   am
   111    32    33    2
   112    51    50    1
   113    38    39    1
   114    50    49    1
   115    59    57   ar
   116   155   153    1
   117    42    39    1
   118    39    40    1
   119   153   154    1
   120   153   150    1
   121    77    76    1
   122   152   151    2
   123    57    56    1
   124    57    58   ar
   125   151   150    1
   126    56    53    1
   127    49    48    1
   128    52    53    1
   129   150   149    1
   130    40    41    2
   131    76    73    1
   132    48    47    1
   133    53    54    1
   134    43    44    1
   135    73    72    1
   136    73    74    1
   137    47    44    1
   138    54    55    2
   139    72    70   am
   140    71    70    2
   141    66    64    1
   142    70    69    1
   143    44    45    1
   144    69    68    1
   145    74    75    2
   146    68    62   am
   147    60    61    1
   148    64    61    1
   149    64    65    1
   150    62    61    1
   151    62    63    2
   152    45    46    2
   153    67    65    1
