@<TRIPOS>MOLECULE
tmp/2jkjF01.pdb
 72 70 0 0 0
SMALL
GASTEIGER

@<TRIPOS>ATOM
      1  N        114.8690   45.2890   41.0260 N.3    41  PRO41      -0.2102
      2  CA       114.3150   46.6360   41.1240 C.3    41  PRO41       0.1504
      3  C        115.2410   47.6760   40.5130 C.2    41  PRO41       0.2576
      4  O        116.4500   47.6540   40.7390 O.2    41  PRO41      -0.2718
      5  CB       114.2010   46.8600   42.6340 C.3    41  PRO41       0.0282
      6  CG       115.2220   45.9540   43.2280 C.3    41  PRO41       0.0208
      7  CD       115.2520   44.7480   42.3420 C.3    41  PRO41       0.0893
      8  N        114.6680   48.5970   39.7470 N.am   42  ILE42      -0.1966
      9  CA       115.4490   49.6530   39.1180 C.3    42  ILE42       0.1727
     10  C        115.2710   50.9690   39.8610 C.2    42  ILE42       0.2617
     11  O        116.2320   51.7070   40.0760 O.2    42  ILE42      -0.2715
     12  CB       115.1150   49.7990   37.6240 C.3    42  ILE42       0.0290
     13  CG1      115.5870   48.5660   36.8510 C.3    42  ILE42       0.0022
     14  CG2      115.7430   51.0660   37.0620 C.3    42  ILE42       0.0023
     15  CD1      115.4320   48.6910   35.3570 C.3    42  ILE42       0.0001
     16  N        114.0380   51.2510   40.2660 N.am   43  GLY43      -0.1941
     17  CA       113.7380   52.4770   40.9910 C.3    43  GLY43       0.1998
     18  C        112.2370   52.7160   41.0910 C.2    43  GLY43       0.2480
     19  O        111.4590   52.1960   40.2910 O.2    43  GLY43      -0.2729
     20  N        111.8400   53.5090   42.0810 N.am   44  PRO44      -0.2726
     21  CA       110.4320   53.8280   42.2880 C.3    44  PRO44       0.1402
     22  C        110.0560   55.1310   41.5880 C.2    44  PRO44       0.2269
     23  O        110.9040   55.9950   41.3560 O.2    44  PRO44      -0.2865
     24  CB       110.3380   54.0040   43.8060 C.3    44  PRO44       0.0296
     25  CG       111.6970   54.4460   44.2120 C.3    44  PRO44       0.0237
     26  CD       112.6440   53.7270   43.2960 C.3    44  PRO44       0.0939
     27  N        107.2000   58.0450   42.1000 N.3    46  THR46      -0.1218
     28  CA       106.0980   58.5960   42.8740 C.3    46  THR46       0.1862
     29  C        105.0340   59.2040   41.9730 C.2    46  THR46       0.2287
     30  O        105.3450   59.8450   40.9670 O.2    46  THR46      -0.2866
     31  CB       106.5830   59.5990   43.9370 C.3    46  THR46       0.1770
     32  OG1      107.2090   60.7180   43.2960 O.3    46  THR46      -0.2211
     33  CG2      107.5690   58.9370   44.8790 C.3    46  THR46       0.0375
     34  N        103.0070   49.5930   43.8250 N.3    89  THR89      -0.1218
     35  CA       103.3700   48.8510   45.0270 C.3    89  THR89       0.1862
     36  C        102.1530   48.3580   45.8100 C.2    89  THR89       0.2287
     37  O        102.2610   47.4320   46.6120 O.2    89  THR89      -0.2866
     38  CB       104.3420   49.6500   45.9170 C.3    89  THR89       0.1770
     39  OG1      103.7090   50.8600   46.3510 O.3    89  THR89      -0.2211
     40  CG2      105.6050   49.9970   45.1440 C.3    89  THR89       0.0375
     41  N        103.1440   54.6180   44.5600 N.3   112  ILE112     -0.1245
     42  CA       104.4750   54.3790   44.0270 C.3   112  ILE112      0.1561
     43  C        104.4180   53.3740   42.8860 C.2   112  ILE112      0.2260
     44  O        103.8330   52.2990   43.0230 O.2   112  ILE112     -0.2867
     45  CB       105.4320   53.8760   45.1270 C.3   112  ILE112      0.0252
     46  CG1      105.4640   54.8480   46.3090 C.3   112  ILE112      0.0019
     47  CG2      106.8240   53.6510   44.5570 C.3   112  ILE112      0.0019
     48  CD1      106.6210   55.8220   46.2690 C.3   112  ILE112      0.0001
     49  N        106.6880   50.9780   40.7500 N.3   114  GLY114     -0.1210
     50  CA       108.0110   50.3660   40.7360 C.3   114  GLY114      0.1956
     51  C        108.4470   49.9240   39.3440 C.2   114  GLY114      0.2612
     52  O        107.6440   49.4240   38.5580 O.2   114  GLY114     -0.2717
     53  N        109.7320   50.1050   39.0550 N.am  115  ILE115     -0.1965
     54  CA       110.3100   49.6950   37.7800 C.3   115  ILE115      0.1727
     55  C        111.2280   48.5070   38.0390 C.2   115  ILE115      0.2616
     56  O        112.1690   48.6080   38.8240 O.2   115  ILE115     -0.2715
     57  CB       111.0830   50.8520   37.1090 C.3   115  ILE115      0.0290
     58  CG1      110.2320   52.1250   37.0860 C.3   115  ILE115      0.0022
     59  CG2      111.5190   50.4600   35.7020 C.3   115  ILE115      0.0023
     60  CD1      109.0460   52.0480   36.1560 C.3   115  ILE115      0.0001
     61  N        110.9290   47.3760   37.4070 N.am  116  TYR116     -0.1974
     62  CA       111.7190   46.1610   37.5880 C.3   116  TYR116      0.1639
     63  C        112.2060   45.5780   36.2630 C.2   116  TYR116      0.2290
     64  O        111.5890   45.7730   35.2130 O.2   116  TYR116     -0.2864
     65  CB       110.9090   45.0950   38.3310 C.3   116  TYR116      0.0560
     66  CG       110.1840   45.5960   39.5610 C.ar  116  TYR116     -0.0198
     67  CD1      110.7500   45.4710   40.8230 C.ar  116  TYR116     -0.0009
     68  CD2      108.9100   46.1440   39.4660 C.ar  116  TYR116     -0.0009
     69  CE1      110.0810   45.9020   41.9520 C.ar  116  TYR116      0.0417
     70  CE2      108.2330   46.5770   40.5890 C.ar  116  TYR116      0.0417
     71  CZ       108.8230   46.4530   41.8290 C.ar  116  TYR116      0.1957
     72  OH       108.1540   46.8860   42.9500 O.3   116  TYR116     -0.2866
@<TRIPOS>BOND
     1    64    63    2
     2    15    13    1
     3    59    57    1
     4    60    58    1
     5    63    62    1
     6    13    12    1
     7    14    12    1
     8    58    57    1
     9    57    54    1
    10    61    62    1
    11    61    55   am
    12    62    65    1
    13    12     9    1
    14    54    55    1
    15    54    53    1
    16    55    56    2
    17    65    66    1
    18    52    51    2
    19    53    51   am
    20     9     8    1
    21     9    10    1
    22    51    50    1
    23    68    66   ar
    24    68    70   ar
    25    66    67   ar
    26     8     3   am
    27    10    11    2
    28    10    16   am
    29    16    17    1
    30    19    18    2
    31     3     4    2
    32     3     2    1
    33    70    71   ar
    34    50    49    1
    35    67    69   ar
    36    30    29    2
    37    17    18    1
    38     1     2    1
    39     1     7    1
    40    18    20   am
    41     2     5    1
    42    23    22    2
    43    22    21    1
    44    71    69   ar
    45    71    72    1
    46    29    28    1
    47    20    21    1
    48    20    26    1
    49    27    28    1
    50    21    24    1
    51     7     6    1
    52     5     6    1
    53    28    31    1
    54    43    44    2
    55    43    42    1
    56    32    31    1
    57    26    25    1
    58    24    25    1
    59    34    35    1
    60    31    33    1
    61    42    41    1
    62    42    45    1
    63    47    45    1
    64    35    36    1
    65    35    38    1
    66    45    46    1
    67    40    38    1
    68    36    37    2
    69    38    39    1
    70    48    46    1
