@<TRIPOS>MOLECULE
tmp/2jkmA00.pdb
 184 171 0 0 0
SMALL
GASTEIGER

@<TRIPOS>ATOM
      1  N          5.9870    4.0590   38.6610 N.3    14  ARG14      -0.1231
      2  CA         7.3100    3.4410   38.7180 C.3    14  ARG14       0.1694
      3  C          8.1780    3.7350   37.4900 C.2    14  ARG14       0.2592
      4  O          7.6850    3.8690   36.3670 O.2    14  ARG14      -0.2718
      5  CB         7.2100    1.9270   38.9720 C.3    14  ARG14       0.0321
      6  CG         6.9020    1.0680   37.7450 C.3    14  ARG14       0.0489
      7  CD         6.8420   -0.4150   38.1170 C.3    14  ARG14       0.2205
      8  NE         5.7410   -0.6950   39.0460 N.pl3  14  ARG14      -0.0865
      9  CZ         4.7630   -1.5750   38.8240 C.cat  14  ARG14       0.5346
     10  NH1        4.7360   -2.2950   37.7030 N.pl3  14  ARG14       0.1354
     11  NH2        3.8120   -1.7480   39.7340 N.pl3  14  ARG14       0.1354
     12  N          9.4780    3.8440   37.7290 N.am   15  CYS15      -0.1956
     13  CA        10.4280    3.9390   36.6490 C.3    15  CYS15       0.1843
     14  C         10.3600    2.6550   35.8130 C.2    15  CYS15       0.2625
     15  O         10.4150    1.5540   36.3560 O.2    15  CYS15      -0.2714
     16  CB        11.8410    4.1640   37.1860 C.3    15  CYS15       0.0997
     17  SG        13.0000    4.3680   35.8400 S.3    15  CYS15      -0.0797
     18  N         10.2080    2.8070   34.5030 N.am   16  ILE16      -0.1963
     19  CA        10.1280    1.6520   33.6010 C.3    16  ILE16       0.1727
     20  C         11.3240    1.5610   32.6680 C.2    16  ILE16       0.2617
     21  O         11.3850    0.6850   31.8170 O.2    16  ILE16      -0.2715
     22  CB         8.8160    1.6310   32.7640 C.3    16  ILE16       0.0290
     23  CG1        8.6950    2.9030   31.9010 C.3    16  ILE16       0.0022
     24  CG2        7.6080    1.3390   33.6910 C.3    16  ILE16       0.0023
     25  CD1        7.4010    3.0530   31.1000 C.3    16  ILE16       0.0001
     26  N         12.2710    2.4710   32.8410 N.am   17  GLY17      -0.1940
     27  CA        13.4270    2.5150   31.9930 C.3    17  GLY17       0.2014
     28  C         14.0750    3.8770   31.9320 C.2    17  GLY17       0.2639
     29  O         13.9040    4.7120   32.8330 O.2    17  GLY17      -0.2714
     30  N         14.7800    4.0890   30.8250 N.am   18  GLU18      -0.1963
     31  CA        15.7270    5.1570   30.6470 C.3    18  GLU18       0.1733
     32  C         15.7010    5.5560   29.1810 C.2    18  GLU18       0.2616
     33  O         15.7840    4.7020   28.2930 O.2    18  GLU18      -0.2715
     34  CB        17.1200    4.5980   30.9340 C.3    18  GLU18       0.0429
     35  CG        17.8880    5.2350   32.0630 C.3    18  GLU18       0.1163
     36  CD        19.1930    4.5040   32.3270 C.2    18  GLU18       0.3649
     37  OE1       19.6200    4.4530   33.4960 O.co2  18  GLU18      -0.2457
     38  OE2       19.7900    3.9760   31.3620 O.co2  18  GLU18      -0.2457
     39  N         15.6020    6.8520   28.9240 N.am   19  GLY19      -0.1955
     40  CA        15.9370    7.4020   27.6110 C.3    19  GLY19       0.1869
     41  C         17.3480    7.9780   27.6510 C.2    19  GLY19       0.2309
     42  O         18.0580    7.8410   28.6570 O.2    19  GLY19      -0.2863
     43  N         12.3750    7.2660   32.3520 N.3    24  VAL24      -0.1245
     44  CA        11.0120    7.1970   31.8520 C.3    24  VAL24       0.1561
     45  C         10.2010    6.4790   32.9270 C.2    24  VAL24       0.2260
     46  O         10.6190    5.4320   33.4550 O.2    24  VAL24      -0.2867
     47  CB        10.9660    6.4260   30.5200 C.3    24  VAL24       0.0252
     48  CG1        9.5580    6.3990   29.9260 C.3    24  VAL24       0.0019
     49  CG2       11.9680    7.0350   29.5310 C.3    24  VAL24       0.0019
     50  N          6.1660    5.1680   34.2390 N.3    26  GLN26      -0.1245
     51  CA         4.7860    4.9360   33.8890 C.3    26  GLN26       0.1566
     52  C          3.9880    5.7920   34.8530 C.2    26  GLN26       0.2260
     53  O          4.5020    6.2290   35.8980 O.2    26  GLN26      -0.2867
     54  CB         4.4080    3.4490   33.9820 C.3    26  GLN26       0.0367
     55  CG         4.4570    2.8430   35.3820 C.3    26  GLN26       0.0905
     56  CD         4.0210    1.3740   35.4350 C.2    26  GLN26       0.2608
     57  OE1        3.7350    0.8440   36.5080 O.2    26  GLN26      -0.2717
     58  NE2        3.9730    0.7200   34.2900 N.am   26  GLN26      -0.0878
     59  N          3.2150    7.3310   29.6030 N.3    40  ALA40      -0.1245
     60  CA         4.6440    7.2380   29.8370 C.3    40  ALA40       0.1562
     61  C          5.1050    8.6610   30.0340 C.2    40  ALA40       0.2260
     62  O          4.6560    9.5780   29.3430 O.2    40  ALA40      -0.2867
     63  CB         5.3520    6.6210   28.6580 C.3    40  ALA40       0.0290
     64  N          8.5150   10.7690   30.1890 N.3    42  LYS42      -0.1245
     65  CA         9.9440   10.9130   29.9880 C.3    42  LYS42       0.1561
     66  C         10.4370   12.1350   30.7520 C.2    42  LYS42       0.2260
     67  O          9.8930   13.2210   30.6180 O.2    42  LYS42      -0.2867
     68  CB        10.2970   11.0640   28.4920 C.3    42  LYS42       0.0271
     69  CG         9.7720    9.9610   27.5620 C.3    42  LYS42       0.0035
     70  CD        10.4350   10.0100   26.1660 C.3    42  LYS42       0.0206
     71  CE        11.8620    9.5010   26.2200 C.3    42  LYS42       0.1093
     72  NZ        12.4110    9.2110   24.8560 N.3    42  LYS42      -0.1314
     73  N         12.0480   15.8980   20.6730 N.3    59  GLU59      -0.1245
     74  CA        11.2720   14.6800   20.5270 C.3    59  GLU59       0.1567
     75  C          9.7680   14.9690   20.4720 C.2    59  GLU59       0.2260
     76  O          9.0630   14.4410   19.6110 O.2    59  GLU59      -0.2867
     77  CB        11.5750   13.7240   21.6790 C.3    59  GLU59       0.0388
     78  CG        10.6270   12.5190   21.7610 C.3    59  GLU59       0.1160
     79  CD        11.2000   11.3780   22.5860 C.2    59  GLU59       0.3649
     80  OE1       11.9300   11.6530   23.5630 O.co2  59  GLU59      -0.2457
     81  OE2       10.9220   10.1990   22.2640 O.co2  59  GLU59      -0.2457
     82  N          3.7660    5.8470   18.4610 N.3    72  VAL72      -0.1245
     83  CA         3.4990    6.3220   19.8180 C.3    72  VAL72       0.1561
     84  C          2.9700    7.7530   19.7910 C.2    72  VAL72       0.2260
     85  O          3.5290    8.6140   19.1200 O.2    72  VAL72      -0.2867
     86  CB         4.7500    6.2590   20.7480 C.3    72  VAL72       0.0252
     87  CG1        4.3700    6.6730   22.1560 C.3    72  VAL72       0.0019
     88  CG2        5.3600    4.8600   20.7560 C.3    72  VAL72       0.0019
     89  N          3.5230   10.8490   27.0340 N.3    87  MET87      -0.1230
     90  CA         3.0760   10.0490   25.9010 C.3    87  MET87       0.1702
     91  C          2.0480    9.0070   26.3340 C.2    87  MET87       0.2592
     92  O          1.8640    8.7480   27.5240 O.2    87  MET87      -0.2718
     93  CB         4.2620    9.3560   25.2130 C.3    87  MET87       0.0401
     94  CG         5.5980   10.0140   25.4870 C.3    87  MET87       0.0596
     95  SD         6.6900   10.1050   24.0680 S.3    87  MET87      -0.1393
     96  CE         7.2630    8.4350   23.9390 C.3    87  MET87       0.0692
     97  N          1.3830    8.4020   25.3590 N.am   88  GLU88      -0.1966
     98  CA         0.4960    7.2880   25.6500 C.3    88  GLU88       0.1733
     99  C          1.3750    6.1130   26.1070 C.2    88  GLU88       0.2616
    100  O          2.5140    5.9380   25.6220 O.2    88  GLU88      -0.2715
    101  CB        -0.3170    6.9100   24.4060 C.3    88  GLU88       0.0429
    102  CG         0.5870    6.5110   23.2200 C.3    88  GLU88       0.1163
    103  CD        -0.0850    5.6430   22.1820 C.2    88  GLU88       0.3649
    104  OE1        0.3150    5.7510   21.0040 O.co2  88  GLU88      -0.2457
    105  OE2       -0.9980    4.8600   22.5230 O.co2  88  GLU88      -0.2457
    106  N          0.8570    5.3320   27.0490 N.am   89  LEU89      -0.1963
    107  CA         1.5440    4.1390   27.5030 C.3    89  LEU89       0.1728
    108  C          1.1630    2.9580   26.6220 C.2    89  LEU89       0.2616
    109  O         -0.0090    2.7210   26.3570 O.2    89  LEU89      -0.2715
    110  CB         1.2170    3.8530   28.9800 C.3    89  LEU89       0.0311
    111  CG         2.1550    2.9200   29.7550 C.3    89  LEU89       0.0022
    112  CD1        3.6110    3.4750   29.8080 C.3    89  LEU89       0.0001
    113  CD2        1.6270    2.6720   31.1400 C.3    89  LEU89       0.0001
    114  N          2.1610    2.2350   26.1340 N.am   90  CYS90      -0.1954
    115  CA         1.9130    0.9440   25.5040 C.3    90  CYS90       0.1843
    116  C          2.1010   -0.0840   26.5930 C.2    90  CYS90       0.2626
    117  O          3.2230   -0.4410   26.9570 O.2    90  CYS90      -0.2714
    118  CB         2.8220    0.7110   24.3110 C.3    90  CYS90       0.0997
    119  SG         2.7120    2.0630   23.1270 S.3    90  CYS90      -0.0797
    120  N          0.9680   -0.5350   27.1070 N.am   91  THR91      -0.1950
    121  CA         0.8870   -1.1900   28.3970 C.3    91  THR91       0.1897
    122  C          1.5730   -2.5510   28.4370 C.2    91  THR91       0.2313
    123  O          1.9010   -3.0330   29.5040 O.2    91  THR91      -0.2863
    124  CB        -0.5970   -1.3130   28.8810 C.3    91  THR91       0.1794
    125  OG1       -0.6160   -1.6300   30.2720 O.3    91  THR91      -0.2208
    126  CG2       -1.3670   -2.4090   28.1400 C.3    91  THR91       0.0378
    127  N          4.4490   -3.2180   27.0910 N.3    93  GLY93      -0.1210
    128  CA         5.8930   -2.9740   27.1080 C.3    93  GLY93       0.1956
    129  C          6.6670   -3.1890   25.8180 C.2    93  GLY93       0.2611
    130  O          6.1620   -2.9700   24.7180 O.2    93  GLY93      -0.2717
    131  N          7.9200   -3.6010   25.9700 N.am   94  GLU94      -0.1979
    132  CA         8.8360   -3.7590   24.8530 C.3    94  GLU94       0.1602
    133  C          8.5880   -5.0380   24.0690 C.2    94  GLU94       0.2287
    134  O          8.2950   -6.0900   24.6530 O.2    94  GLU94      -0.2864
    135  CB        10.2740   -3.7040   25.3640 C.3    94  GLU94       0.0415
    136  CG        10.4480   -2.5850   26.4100 C.3    94  GLU94       0.1163
    137  CD        11.8340   -2.5090   27.0090 C.2    94  GLU94       0.3649
    138  OE1       12.2440   -1.3830   27.3720 O.co2  94  GLU94      -0.2457
    139  OE2       12.5080   -3.5550   27.1370 O.co2  94  GLU94      -0.2457
    140  N         10.9130   -8.5190   24.7260 N.3    97  SER97      -0.1217
    141  CA        10.5110   -9.2400   25.9210 C.3    97  SER97       0.1889
    142  C          9.1980   -9.9630   25.7050 C.2    97  SER97       0.2288
    143  O          9.0860  -11.1310   26.0550 O.2    97  SER97      -0.2866
    144  CB        10.3940   -8.3020   27.1200 C.3    97  SER97       0.2089
    145  OG        11.5950   -7.5700   27.2780 O.3    97  SER97      -0.2183
    146  N         13.8830   -3.1800   19.4750 N.3   138  ARG138     -0.1231
    147  CA        14.1040   -2.4480   20.7250 C.3   138  ARG138      0.1694
    148  C         13.3080   -1.1490   20.7870 C.2   138  ARG138      0.2592
    149  O         13.1410   -0.5750   21.8590 O.2   138  ARG138     -0.2718
    150  CB        15.5950   -2.1370   20.9260 C.3   138  ARG138      0.0321
    151  CG        16.1610   -1.1640   19.8780 C.3   138  ARG138      0.0489
    152  CD        17.5850   -0.7180   20.1330 C.3   138  ARG138      0.2205
    153  NE        18.1400   -0.3410   18.8400 N.pl3 138  ARG138     -0.0865
    154  CZ        18.8840   -1.1390   18.0720 C.cat 138  ARG138      0.5346
    155  NH1       19.2270   -2.3540   18.4820 N.pl3 138  ARG138      0.1354
    156  NH2       19.3000   -0.7090   16.8960 N.pl3 138  ARG138      0.1354
    157  N         12.8360   -0.6890   19.6330 N.am  139  ASN139     -0.1974
    158  CA        12.1430    0.5920   19.5140 C.3   139  ASN139      0.1688
    159  C         10.6830    0.4050   19.1560 C.2   139  ASN139      0.2292
    160  O          9.9790    1.3730   18.8270 O.2   139  ASN139     -0.2864
    161  CB        12.8310    1.4810   18.4780 C.3   139  ASN139      0.1181
    162  CG        14.1880    1.9520   18.9340 C.2   139  ASN139      0.2629
    163  OD1       14.3910    2.2350   20.1080 O.2   139  ASN139     -0.2716
    164  ND2       15.1210    2.0550   18.0070 N.am  139  ASN139     -0.0877
    165  N          7.0280   -1.0120   20.6840 N.3   141  LEU141     -0.1245
    166  CA         6.2860   -1.2240   21.9220 C.3   141  LEU141      0.1561
    167  C          4.9830   -1.9790   21.6530 C.2   141  LEU141      0.2260
    168  O          4.4300   -1.9010   20.5670 O.2   141  LEU141     -0.2867
    169  CB         6.0000    0.1250   22.6020 C.3   141  LEU141      0.0270
    170  CG         7.2240    0.9360   23.0410 C.3   141  LEU141      0.0019
    171  CD1        6.8690    2.3940   23.2840 C.3   141  LEU141      0.0001
    172  CD2        7.8520    0.3200   24.2720 C.3   141  LEU141      0.0001
    173  N          8.4880    3.6560   18.3150 N.3   151  GLY151     -0.1210
    174  CA         8.9900    4.8090   19.0750 C.3   151  GLY151      0.1956
    175  C         10.2590    5.4270   18.5080 C.2   151  GLY151      0.2611
    176  O         10.6530    5.0960   17.4090 O.2   151  GLY151     -0.2717
    177  N         10.8980    6.2790   19.3170 N.am  152  ASP152     -0.1973
    178  CA        11.9290    7.3150   18.9650 C.3   152  ASP152      0.1709
    179  C         12.3790    7.5580   17.5190 C.2   152  ASP152      0.2293
    180  O         12.9640    6.6590   16.9220 O.2   152  ASP152     -0.2864
    181  CB        13.1970    7.0420   19.7680 C.3   152  ASP152      0.1436
    182  CG        13.9530    5.8540   19.2510 C.2   152  ASP152      0.3671
    183  OD1       15.1740    5.9680   18.9930 O.co2 152  ASP152     -0.2456
    184  OD2       13.2960    4.8150   19.0790 O.co2 152  ASP152     -0.2456
@<TRIPOS>BOND
     1   156   154    1
     2   180   179    2
     3   176   175    2
     4   179   178    1
     5   164   162   am
     6   154   155    1
     7   154   153    2
     8   173   174    1
     9    82    83    1
    10   161   162    1
    11   161   158    1
    12   175   174    1
    13   175   177   am
    14   160   159    2
    15   153   152    1
    16   162   163    2
    17   178   177    1
    18   178   181    1
    19   183   182   ar
    20   184   182   ar
    21    85    84    2
    22   159   158    1
    23   182   181    1
    24   146   147    1
    25   158   157    1
    26    76    75    2
    27   157   148   am
    28    84    83    1
    29    83    86    1
    30   151   152    1
    31   151   150    1
    32    75    74    1
    33    74    73    1
    34    74    77    1
    35   168   167    2
    36   165   166    1
    37   147   148    1
    38   147   150    1
    39    86    88    1
    40    86    87    1
    41   148   149    2
    42   104   103   ar
    43   167   166    1
    44    77    78    1
    45    78    79    1
    46   166   169    1
    47   103   105   ar
    48   103   102    1
    49    81    79   ar
    50    79    80   ar
    51   169   170    1
    52   170   171    1
    53   170   172    1
    54   119   118    1
    55   102   101    1
    56    96    95    1
    57    95    94    1
    58   133   134    2
    59   133   132    1
    60   118   115    1
    61   101    98    1
    62   130   129    2
    63   140   141    1
    64   132   135    1
    65   132   131    1
    66    72    71    1
    67    93    94    1
    68    93    90    1
    69    97    98    1
    70    97    91   am
    71   135   136    1
    72   115   114    1
    73   115   116    1
    74   100    99    2
    75    98    99    1
    76   142   141    1
    77   142   143    2
    78   129   131   am
    79   129   128    1
    80    90    91    1
    81    90    89    1
    82   141   144    1
    83    99   106   am
    84   114   108   am
    85    70    71    1
    86    70    69    1
    87    91    92    2
    88   109   108    2
    89   136   137    1
    90   116   117    2
    91   116   120   am
    92   108   107    1
    93   137   139   ar
    94   137   138   ar
    95   106   107    1
    96   127   128    1
    97   120   121    1
    98   144   145    1
    99   107   110    1
   100    69    68    1
   101    40    41    1
   102    40    39    1
   103    41    42    2
   104   126   124    1
   105    33    32    2
   106   121   122    1
   107   121   124    1
   108   122   123    2
   109    68    65    1
   110    63    60    1
   111   124   125    1
   112    39    32   am
   113   110   111    1
   114    32    31    1
   115    62    61    2
   116    49    47    1
   117    59    60    1
   118   111   112    1
   119   111   113    1
   120    60    61    1
   121    48    47    1
   122    65    64    1
   123    65    66    1
   124    47    44    1
   125    67    66    2
   126    31    30    1
   127    31    34    1
   128    30    28   am
   129    34    35    1
   130    25    23    1
   131    38    36   ar
   132    21    20    2
   133    44    43    1
   134    44    45    1
   135    23    22    1
   136    28    27    1
   137    28    29    2
   138    27    26    1
   139    35    36    1
   140    36    37   ar
   141    20    26   am
   142    20    19    1
   143    22    19    1
   144    22    24    1
   145    45    46    2
   146    19    18    1
   147    51    54    1
   148    51    50    1
   149    51    52    1
   150    54    55    1
   151    58    56   am
   152    18    14   am
   153    52    53    2
   154    55    56    1
   155    56    57    2
   156    14    15    2
   157    14    13    1
   158    17    16    1
   159     4     3    2
   160    13    16    1
   161    13    12    1
   162     3    12   am
   163     3     2    1
   164    10     9    1
   165     6     7    1
   166     6     5    1
   167     7     8    1
   168     1     2    1
   169     2     5    1
   170     9     8    2
   171     9    11    1
