@<TRIPOS>MOLECULE
tmp/2jkoA00.pdb
 185 174 0 0 0
SMALL
GASTEIGER

@<TRIPOS>ATOM
      1  N         33.4010   26.8520   24.9820 N.3    12  ARG12      -0.1231
      2  CA        32.1830   26.0530   24.9020 C.3    12  ARG12       0.1694
      3  C         31.1990   26.3230   26.0440 C.2    12  ARG12       0.2592
      4  O         31.6010   26.5420   27.1930 O.2    12  ARG12      -0.2718
      5  CB        32.5580   24.5610   24.8050 C.3    12  ARG12       0.0321
      6  CG        31.8940   23.6300   25.8090 C.3    12  ARG12       0.0489
      7  CD        32.5790   22.2700   25.8280 C.3    12  ARG12       0.2205
      8  NE        32.5380   21.6680   27.1600 N.pl3  12  ARG12      -0.0865
      9  CZ        31.5910   20.8350   27.5910 C.cat  12  ARG12       0.5346
     10  NH1       30.5870   20.4850   26.7950 N.pl3  12  ARG12       0.1354
     11  NH2       31.6520   20.3490   28.8250 N.pl3  12  ARG12       0.1354
     12  N         29.9100   26.3260   25.7090 N.am   13  CYS13      -0.1956
     13  CA        28.8530   26.4080   26.7130 C.3    13  CYS13       0.1843
     14  C         28.8000   25.1150   27.5220 C.2    13  CYS13       0.2625
     15  O         28.7030   24.0180   26.9620 O.2    13  CYS13      -0.2714
     16  CB        27.4960   26.6920   26.0650 C.3    13  CYS13       0.0997
     17  SG        26.1150   26.7200   27.2400 S.3    13  CYS13      -0.0797
     18  N         28.8720   25.2580   28.8410 N.am   14  ILE14      -0.1963
     19  CA        28.9100   24.1080   29.7380 C.3    14  ILE14       0.1727
     20  C         27.5800   23.8740   30.4520 C.2    14  ILE14       0.2617
     21  O         27.1080   22.7420   30.5150 O.2    14  ILE14      -0.2715
     22  CB        30.0920   24.1850   30.7450 C.3    14  ILE14       0.0290
     23  CG1       30.0670   25.5060   31.5290 C.3    14  ILE14       0.0022
     24  CG2       31.4170   23.9740   30.0110 C.3    14  ILE14       0.0023
     25  CD1       31.0870   25.6120   32.6490 C.3    14  ILE14       0.0001
     26  N         26.9700   24.9420   30.9620 N.am   15  GLY15      -0.1940
     27  CA        25.6950   24.8330   31.6670 C.3    15  GLY15       0.2014
     28  C         24.8160   26.0500   31.4600 C.2    15  GLY15       0.2639
     29  O         24.9570   26.7640   30.4620 O.2    15  GLY15      -0.2714
     30  N         23.9020   26.2770   32.4030 N.am   16  GLU16      -0.1963
     31  CA        23.0530   27.4720   32.4080 C.3    16  GLU16       0.1733
     32  C         22.4740   27.7730   33.7910 C.2    16  GLU16       0.2616
     33  O         21.9260   26.8890   34.4550 O.2    16  GLU16      -0.2715
     34  CB        21.9400   27.3940   31.3450 C.3    16  GLU16       0.0429
     35  CG        21.2520   26.0360   31.2060 C.3    16  GLU16       0.1163
     36  CD        20.7120   25.7840   29.8040 C.2    16  GLU16       0.3649
     37  OE1       19.8600   24.8860   29.6500 O.co2  16  GLU16      -0.2457
     38  OE2       21.1350   26.4750   28.8500 O.co2  16  GLU16      -0.2457
     39  N         22.6210   29.0250   34.2190 N.am   17  GLY17      -0.1955
     40  CA        22.0270   29.5080   35.4660 C.3    17  GLY17       0.1869
     41  C         20.7140   30.2190   35.2080 C.2    17  GLY17       0.2309
     42  O         20.1060   30.0350   34.1500 O.2    17  GLY17      -0.2863
     43  N         26.1260   29.5290   31.0150 N.3    22  VAL22      -0.1245
     44  CA        27.4560   29.5020   31.6130 C.3    22  VAL22       0.1561
     45  C         28.4110   28.8230   30.6340 C.2    22  VAL22       0.2260
     46  O         28.1150   27.7460   30.1060 O.2    22  VAL22      -0.2867
     47  CB        27.4660   28.7620   32.9810 C.3    22  VAL22       0.0252
     48  CG1       28.8470   28.8090   33.6140 C.3    22  VAL22       0.0019
     49  CG2       26.4280   29.3610   33.9260 C.3    22  VAL22       0.0019
     50  N         32.6380   27.7210   29.6360 N.3    24  GLN24      -0.1245
     51  CA        34.0220   27.5780   30.0640 C.3    24  GLN24       0.1566
     52  C         34.8500   28.5310   29.2120 C.2    24  GLN24       0.2260
     53  O         34.4160   28.9400   28.1320 O.2    24  GLN24      -0.2867
     54  CB        34.5170   26.1320   29.9410 C.3    24  GLN24       0.0367
     55  CG        35.0310   25.7290   28.5690 C.3    24  GLN24       0.0905
     56  CD        35.7260   24.3700   28.5640 C.2    24  GLN24       0.2608
     57  OE1       35.9840   23.7760   29.6150 O.2    24  GLN24      -0.2717
     58  NE2       36.0380   23.8790   27.3720 N.am   24  GLN24      -0.0878
     59  N         35.2530   29.5920   34.5160 N.3    38  ALA38      -0.1245
     60  CA        33.8400   29.5660   34.1620 C.3    38  ALA38       0.1562
     61  C         33.3390   30.9950   33.9610 C.2    38  ALA38       0.2260
     62  O         33.6960   31.9010   34.7120 O.2    38  ALA38      -0.2867
     63  CB        33.0250   28.8460   35.2360 C.3    38  ALA38       0.0290
     64  N         29.9260   33.1430   33.6250 N.3    40  LYS40      -0.1245
     65  CA        28.4860   33.2920   33.7740 C.3    40  LYS40       0.1561
     66  C         28.0170   34.4670   32.9370 C.2    40  LYS40       0.2260
     67  O         28.5260   35.5790   33.0800 O.2    40  LYS40      -0.2867
     68  CB        28.1170   33.5290   35.2390 C.3    40  LYS40       0.0271
     69  CG        28.3110   32.3290   36.1480 C.3    40  LYS40       0.0035
     70  CD        28.1470   32.7000   37.6270 C.3    40  LYS40       0.0206
     71  CE        26.8240   33.3990   37.9210 C.3    40  LYS40       0.1093
     72  NZ        26.7840   33.9920   39.2950 N.3    40  LYS40      -0.1314
     73  N         33.5990   27.5350   45.4470 N.3    70  VAL70      -0.1245
     74  CA        34.0730   28.1360   44.1900 C.3    70  VAL70       0.1561
     75  C         34.4110   29.6050   44.3860 C.2    70  VAL70       0.2260
     76  O         33.6640   30.3440   45.0410 O.2    70  VAL70      -0.2867
     77  CB        33.0530   28.0000   43.0330 C.3    70  VAL70       0.0252
     78  CG1       32.8190   26.5480   42.6710 C.3    70  VAL70       0.0019
     79  CG2       31.7450   28.7010   43.3650 C.3    70  VAL70       0.0019
     80  N         34.3560   33.0320   37.1690 N.3    85  MET85      -0.1230
     81  CA        34.4750   32.1570   38.3310 C.3    85  MET85       0.1702
     82  C         35.5570   31.1070   38.1030 C.2    85  MET85       0.2592
     83  O         35.9040   30.7960   36.9660 O.2    85  MET85      -0.2718
     84  CB        33.1420   31.4430   38.5800 C.3    85  MET85       0.0401
     85  CG        31.9470   32.3640   38.8290 C.3    85  MET85       0.0596
     86  SD        32.0600   33.2690   40.3840 S.3    85  MET85      -0.1393
     87  CE        31.9900   31.9440   41.5890 C.3    85  MET85       0.0692
     88  N         36.0920   30.5670   39.1930 N.am   86  GLU86      -0.1966
     89  CA        36.9300   29.3770   39.1270 C.3    86  GLU86       0.1733
     90  C         36.1760   28.2610   38.3800 C.2    86  GLU86       0.2616
     91  O         34.9860   28.0650   38.6090 O.2    86  GLU86      -0.2715
     92  CB        37.2830   28.9510   40.5550 C.3    86  GLU86       0.0429
     93  CG        37.8270   27.5470   40.7010 C.3    86  GLU86       0.1163
     94  CD        37.9670   27.0970   42.1550 C.2    86  GLU86       0.3649
     95  OE1       38.5850   26.0340   42.3560 O.co2  86  GLU86      -0.2457
     96  OE2       37.4860   27.7880   43.0880 O.co2  86  GLU86      -0.2457
     97  N         36.8530   27.5490   37.4760 N.am   87  LEU87      -0.1963
     98  CA        36.2190   26.4210   36.7870 C.3    87  LEU87       0.1728
     99  C         36.3820   25.1360   37.5760 C.2    87  LEU87       0.2616
    100  O         37.4870   24.8130   38.0290 O.2    87  LEU87      -0.2715
    101  CB        36.7970   26.2100   35.3840 C.3    87  LEU87       0.0311
    102  CG        36.1120   25.1520   34.5020 C.3    87  LEU87       0.0022
    103  CD1       34.7090   25.5870   34.0630 C.3    87  LEU87       0.0001
    104  CD2       36.9700   24.8220   33.2950 C.3    87  LEU87       0.0001
    105  N         35.2700   24.4190   37.7340 N.am   88  CYS88      -0.1954
    106  CA        35.2760   23.0600   38.2580 C.3    88  CYS88       0.1843
    107  C         35.0700   22.1370   37.0690 C.2    88  CYS88       0.2626
    108  O         33.9430   21.9310   36.6040 O.2    88  CYS88      -0.2714
    109  CB        34.1820   22.8830   39.3130 C.3    88  CYS88       0.0997
    110  SG        34.4270   23.9110   40.7690 S.3    88  CYS88      -0.0797
    111  N         36.1800   21.6020   36.5660 N.am   89  THR89      -0.1936
    112  CA        36.2140   21.0060   35.2280 C.3    89  THR89       0.2028
    113  C         35.2910   19.8020   35.0470 C.2    89  THR89       0.2642
    114  O         34.8090   19.5550   33.9510 O.2    89  THR89      -0.2714
    115  CB        37.6610   20.6750   34.7810 C.3    89  THR89       0.1808
    116  OG1       37.6810   20.3760   33.3770 O.3    89  THR89      -0.2208
    117  CG2       38.2230   19.4910   35.5500 C.3    89  THR89       0.0379
    118  N         35.0380   19.0620   36.1220 N.am   90  LEU90      -0.1963
    119  CA        34.2510   17.8400   36.0150 C.3    90  LEU90       0.1728
    120  C         32.7430   18.0670   36.1510 C.2    90  LEU90       0.2617
    121  O         31.9630   17.1380   36.0040 O.2    90  LEU90      -0.2715
    122  CB        34.7830   16.7690   36.9720 C.3    90  LEU90       0.0311
    123  CG        36.2040   16.2700   36.6580 C.3    90  LEU90       0.0022
    124  CD1       36.6420   15.2420   37.6840 C.3    90  LEU90       0.0001
    125  CD2       36.3030   15.6890   35.2560 C.3    90  LEU90       0.0001
    126  N         32.3410   19.3090   36.4100 N.am   91  GLY91      -0.1940
    127  CA        30.9310   19.6860   36.3280 C.3    91  GLY91       0.2014
    128  C         30.0690   19.3710   37.5390 C.2    91  GLY91       0.2638
    129  O         30.5470   19.3630   38.6770 O.2    91  GLY91      -0.2714
    130  N         28.7890   19.1150   37.2840 N.am   92  GLU92      -0.1977
    131  CA        27.7960   18.9270   38.3460 C.3    92  GLU92       0.1602
    132  C         27.9800   17.6070   39.0840 C.2    92  GLU92       0.2287
    133  O         28.2330   16.5660   38.4660 O.2    92  GLU92      -0.2864
    134  CB        26.3790   19.0250   37.7690 C.3    92  GLU92       0.0415
    135  CG        26.0530   20.4190   37.2320 C.3    92  GLU92       0.1163
    136  CD        24.7900   20.4570   36.3880 C.2    92  GLU92       0.3649
    137  OE1       23.6980   20.1710   36.9180 O.co2  92  GLU92      -0.2457
    138  OE2       24.8850   20.7970   35.1900 O.co2  92  GLU92      -0.2457
    139  N         22.5660   19.1750   43.9160 N.3   136  ARG136     -0.1231
    140  CA        22.4690   19.9920   42.6940 C.3   136  ARG136      0.1694
    141  C         23.3730   21.2410   42.7020 C.2   136  ARG136      0.2592
    142  O         23.6780   21.7930   41.6410 O.2   136  ARG136     -0.2718
    143  CB        21.0120   20.3910   42.3990 C.3   136  ARG136      0.0321
    144  CG        20.5050   21.5360   43.2530 C.3   136  ARG136      0.0489
    145  CD        19.0430   21.9040   42.9890 C.3   136  ARG136      0.2205
    146  NE        18.4700   22.3870   44.2450 N.pl3 136  ARG136     -0.0865
    147  CZ        17.8090   21.6200   45.1090 C.cat 136  ARG136      0.5346
    148  NH1       17.6000   20.3420   44.8370 N.pl3 136  ARG136      0.1354
    149  NH2       17.3520   22.1310   46.2410 N.pl3 136  ARG136      0.1354
    150  N         23.7880   21.6710   43.8920 N.am  137  ASN137     -0.1974
    151  CA        24.5570   22.9040   44.0480 C.3   137  ASN137      0.1688
    152  C         26.0210   22.6360   44.3660 C.2   137  ASN137      0.2292
    153  O         26.7430   23.5240   44.8320 O.2   137  ASN137     -0.2864
    154  CB        23.9200   23.8030   45.1020 C.3   137  ASN137      0.1181
    155  CG        22.5820   24.3440   44.6580 C.2   137  ASN137      0.2629
    156  OD1       22.3790   24.6460   43.4750 O.2   137  ASN137     -0.2716
    157  ND2       21.6550   24.4720   45.5990 N.am  137  ASN137     -0.0877
    158  N         29.7470   21.1730   42.8320 N.3   139  LEU139     -0.1245
    159  CA        30.5240   20.9890   41.6080 C.3   139  LEU139      0.1561
    160  C         31.7430   20.1220   41.8760 C.2   139  LEU139      0.2260
    161  O         32.2150   20.0400   43.0110 O.2   139  LEU139     -0.2867
    162  CB        30.9560   22.3420   41.0470 C.3   139  LEU139      0.0270
    163  CG        29.8320   23.2870   40.6090 C.3   139  LEU139      0.0019
    164  CD1       30.3630   24.6940   40.4680 C.3   139  LEU139      0.0001
    165  CD2       29.1660   22.8240   39.3110 C.3   139  LEU139      0.0001
    166  N         28.9830   25.2370   44.9050 N.3   149  GLY149     -0.1210
    167  CA        28.8510   26.0600   43.7170 C.3   149  GLY149      0.1956
    168  C         28.4350   27.4740   44.0520 C.2   149  GLY149      0.2611
    169  O         28.1970   27.8040   45.2120 O.2   149  GLY149     -0.2717
    170  N         28.3520   28.3050   43.0170 N.am  150  ASP150     -0.1973
    171  CA        27.9670   29.6960   43.1470 C.3   150  ASP150      0.1709
    172  C         26.6530   29.8080   43.9260 C.2   150  ASP150      0.2293
    173  O         25.7040   29.0780   43.6510 O.2   150  ASP150     -0.2864
    174  CB        27.8230   30.3050   41.7480 C.3   150  ASP150      0.1436
    175  CG        27.5060   31.7770   41.7870 C.2   150  ASP150      0.3671
    176  OD1       28.3870   32.5550   42.1980 O.co2 150  ASP150     -0.2456
    177  OD2       26.3790   32.1550   41.4080 O.co2 150  ASP150     -0.2456
    178  N         23.8540   30.8400   41.6280 N.3   153  LEU153     -0.1245
    179  CA        23.4240   29.7040   40.8040 C.3   153  LEU153      0.1561
    180  C         22.8810   28.5750   41.6770 C.2   153  LEU153      0.2260
    181  O         22.1120   27.7310   41.2120 O.2   153  LEU153     -0.2867
    182  CB        24.5760   29.1790   39.9300 C.3   153  LEU153      0.0270
    183  CG        25.2340   30.1000   38.8970 C.3   153  LEU153      0.0019
    184  CD1       26.4350   29.4160   38.2430 C.3   153  LEU153      0.0001
    185  CD2       24.2450   30.5640   37.8420 C.3   153  LEU153      0.0001
@<TRIPOS>BOND
     1     5     2    1
     2     5     6    1
     3     2     1    1
     4     2     3    1
     5    12     3   am
     6    12    13    1
     7     6     7    1
     8     7     8    1
     9     3     4    2
    10    16    13    1
    11    16    17    1
    12    13    14    1
    13    10     9    1
    14    15    14    2
    15     8     9    2
    16    58    56   am
    17    14    18   am
    18     9    11    1
    19    53    52    2
    20    56    55    1
    21    56    57    2
    22    55    54    1
    23    18    19    1
    24    38    36   ar
    25    52    51    1
    26    50    51    1
    27    37    36   ar
    28    19    20    1
    29    19    22    1
    30    36    35    1
    31    54    51    1
    32    24    22    1
    33    46    45    2
    34    20    21    2
    35    20    26   am
    36    29    28    2
    37    45    44    1
    38    22    23    1
    39    26    27    1
    40    43    44    1
    41    35    34    1
    42    34    31    1
    43    28    27    1
    44    28    30   am
    45    23    25    1
    46    44    47    1
    47    30    31    1
    48    31    32    1
    49    66    67    2
    50    66    65    1
    51    47    48    1
    52    47    49    1
    53   104   102    1
    54   116   115    1
    55    64    65    1
    56    65    68    1
    57    32    39   am
    58    32    33    2
    59   114   113    2
    60    61    60    1
    61    61    62    2
    62   103   102    1
    63    42    41    2
    64    60    59    1
    65    60    63    1
    66    39    40    1
    67   102   101    1
    68   115   112    1
    69   115   117    1
    70   113   112    1
    71   113   118   am
    72   138   136   ar
    73    41    40    1
    74   112   111    1
    75    68    69    1
    76   125   123    1
    77   101    98    1
    78   121   120    2
    79   119   118    1
    80   119   120    1
    81   119   122    1
    82    69    70    1
    83   120   126   am
    84   127   126    1
    85   127   128    1
    86   136   137   ar
    87   136   135    1
    88   111   107   am
    89   108   107    2
    90   123   122    1
    91   123   124    1
    92    98    97    1
    93    98    99    1
    94    83    82    2
    95   107   106    1
    96    80    81    1
    97   135   134    1
    98   130   128   am
    99   130   131    1
   100    97    90   am
   101   128   129    2
   102    99   105   am
   103    99   100    2
   104    70    71    1
   105   105   106    1
   106   134   131    1
   107   185   183    1
   108    71    72    1
   109    82    81    1
   110    82    88   am
   111   184   183    1
   112   106   109    1
   113    81    84    1
   114   131   132    1
   115    90    91    2
   116    90    89    1
   117   133   132    2
   118    84    85    1
   119    85    86    1
   120   183   182    1
   121    89    88    1
   122    89    92    1
   123   165   163    1
   124   109   110    1
   125   182   179    1
   126    86    87    1
   127   164   163    1
   128    92    93    1
   129   163   162    1
   130    93    94    1
   131   179   178    1
   132   179   180    1
   133   162   159    1
   134   181   180    2
   135   177   175   ar
   136   159   160    1
   137   159   158    1
   138   142   141    2
   139   174   175    1
   140   174   171    1
   141   175   176   ar
   142   160   161    2
   143    94    95   ar
   144    94    96   ar
   145   143   140    1
   146   143   144    1
   147    78    77    1
   148   140   141    1
   149   140   139    1
   150   141   150   am
   151   145   144    1
   152   145   146    1
   153   170   171    1
   154   170   168   am
   155    77    79    1
   156    77    74    1
   157   171   172    1
   158   156   155    2
   159   173   172    2
   160   167   168    1
   161   167   166    1
   162   150   151    1
   163   151   152    1
   164   151   154    1
   165   168   169    2
   166    74    75    1
   167    74    73    1
   168   146   147    2
   169   152   153    2
   170    75    76    2
   171   155   154    1
   172   155   157   am
   173   148   147    1
   174   147   149    1
