@<TRIPOS>MOLECULE
tmp/2jkpB00.pdb
 149 145 0 0 0
SMALL
GASTEIGER

@<TRIPOS>ATOM
      1  N        -13.7810   31.6460   34.1950 N.3   292  TRP292     -0.1241
      2  CA       -13.0590   32.9380   34.0860 C.3   292  TRP292      0.1605
      3  C        -13.9040   34.0880   33.5230 C.2   292  TRP292      0.2264
      4  O        -14.2430   35.0390   34.2460 O.2   292  TRP292     -0.2867
      5  CB       -11.7650   32.7410   33.2430 C.3   292  TRP292      0.0550
      6  CG       -10.9680   34.0350   33.2100 C.ar  292  TRP292      0.0003
      7  CD1      -10.2230   34.5980   34.2360 C.ar  292  TRP292      0.0946
      8  CD2      -10.8790   34.9380   32.1100 C.ar  292  TRP292      0.0152
      9  NE1       -9.6660   35.7910   33.8170 N.ar  292  TRP292     -0.2442
     10  CE2      -10.0560   36.0220   32.5180 C.ar  292  TRP292      0.0810
     11  CE3      -11.4260   34.9410   30.8140 C.ar  292  TRP292      0.0012
     12  CZ2       -9.7670   37.1010   31.6730 C.ar  292  TRP292      0.0191
     13  CZ3      -11.1220   36.0310   29.9680 C.ar  292  TRP292      0.0001
     14  CH2      -10.3150   37.0910   30.4170 C.ar  292  TRP292      0.0015
     15  N        -15.3900   37.7180   34.9530 N.3   296  ILE296     -0.1245
     16  CA       -14.9860   38.9420   34.2550 C.3   296  ILE296      0.1561
     17  C        -16.1840   39.7670   33.7370 C.2   296  ILE296      0.2260
     18  O        -16.2540   40.9860   33.9650 O.2   296  ILE296     -0.2867
     19  CB       -13.9680   38.6080   33.1070 C.3   296  ILE296      0.0252
     20  CG1      -12.7080   37.9950   33.7160 C.3   296  ILE296      0.0019
     21  CG2      -13.5650   39.8660   32.3330 C.3   296  ILE296      0.0019
     22  CD1      -11.8050   39.0100   34.5340 C.3   296  ILE296      0.0001
     23  N        -16.6260   35.3020   41.9020 N.3   302  TRP302     -0.1241
     24  CA       -15.5060   34.5440   42.4580 C.3   302  TRP302      0.1605
     25  C        -15.8860   34.1140   43.8670 C.2   302  TRP302      0.2264
     26  O        -15.4430   33.1040   44.3490 O.2   302  TRP302     -0.2867
     27  CB       -14.2680   35.3990   42.5460 C.3   302  TRP302      0.0550
     28  CG       -13.5250   35.7130   41.2480 C.ar  302  TRP302      0.0003
     29  CD1      -12.5460   34.9530   40.6620 C.ar  302  TRP302      0.0946
     30  CD2      -13.6430   36.9050   40.4470 C.ar  302  TRP302      0.0152
     31  NE1      -12.0520   35.5890   39.5550 N.ar  302  TRP302     -0.2442
     32  CE2      -12.7150   36.7840   39.3870 C.ar  302  TRP302      0.0810
     33  CE3      -14.4520   38.0570   40.5170 C.ar  302  TRP302      0.0012
     34  CZ2      -12.5640   37.7700   38.4060 C.ar  302  TRP302      0.0191
     35  CZ3      -14.3140   39.0250   39.5340 C.ar  302  TRP302      0.0001
     36  CH2      -13.3610   38.8790   38.4920 C.ar  302  TRP302      0.0015
     37  N        -10.8830   30.1230   38.6720 N.3   352  GLU352     -0.1245
     38  CA       -10.7020   31.2300   39.6030 C.3   352  GLU352      0.1567
     39  C        -11.9160   31.2750   40.5430 C.2   352  GLU352      0.2260
     40  O        -13.0470   30.9890   40.1350 O.2   352  GLU352     -0.2867
     41  CB       -10.5100   32.5600   38.8500 C.3   352  GLU352      0.0388
     42  CG        -9.2460   32.5950   37.9600 C.3   352  GLU352      0.1160
     43  CD        -8.9860   33.9740   37.3960 C.2   352  GLU352      0.3649
     44  OE1       -9.7280   34.8960   37.7770 O.co2 352  GLU352     -0.2457
     45  OE2       -8.0430   34.1650   36.6050 O.co2 352  GLU352     -0.2457
     46  N        -12.6170   35.1660   48.7140 N.3   358  TRP358     -0.1241
     47  CA       -12.9230   36.0360   47.5780 C.3   358  TRP358      0.1605
     48  C        -13.9660   37.0930   47.8800 C.2   358  TRP358      0.2264
     49  O        -14.0490   38.1160   47.1900 O.2   358  TRP358     -0.2867
     50  CB       -13.3000   35.2570   46.2950 C.3   358  TRP358      0.0550
     51  CG       -12.0810   34.7450   45.5170 C.ar  358  TRP358      0.0003
     52  CD1      -11.4470   33.5460   45.6870 C.ar  358  TRP358      0.0946
     53  CD2      -11.3040   35.4710   44.5420 C.ar  358  TRP358      0.0152
     54  NE1      -10.3390   33.4640   44.8690 N.ar  358  TRP358     -0.2442
     55  CE2      -10.2530   34.6200   44.1290 C.ar  358  TRP358      0.0810
     56  CE3      -11.4300   36.7340   43.9460 C.ar  358  TRP358      0.0012
     57  CZ2       -9.3230   34.9940   43.1720 C.ar  358  TRP358      0.0191
     58  CZ3      -10.4930   37.1130   42.9710 C.ar  358  TRP358      0.0001
     59  CH2       -9.4700   36.2330   42.5790 C.ar  358  TRP358      0.0015
     60  N        -11.8390   40.2480   48.2200 N.3   361  TRP361     -0.1241
     61  CA       -10.6560   40.3460   47.3600 C.3   361  TRP361      0.1605
     62  C        -10.3640   41.7380   46.8360 C.2   361  TRP361      0.2264
     63  O         -9.2460   41.9780   46.4020 O.2   361  TRP361     -0.2867
     64  CB       -10.7590   39.4010   46.1630 C.3   361  TRP361      0.0550
     65  CG       -11.5390   39.9460   45.0090 C.ar  361  TRP361      0.0003
     66  CD1      -12.9040   39.8650   44.8100 C.ar  361  TRP361      0.0946
     67  CD2      -11.0150   40.6390   43.8800 C.ar  361  TRP361      0.0152
     68  NE1      -13.2490   40.4630   43.6130 N.ar  361  TRP361     -0.2442
     69  CE2      -12.1070   40.9460   43.0240 C.ar  361  TRP361      0.0810
     70  CE3       -9.7240   41.0140   43.4910 C.ar  361  TRP361      0.0012
     71  CZ2      -11.9410   41.6290   41.8150 C.ar  361  TRP361      0.0191
     72  CZ3       -9.5640   41.7170   42.3120 C.ar  361  TRP361      0.0001
     73  CH2      -10.6680   42.0040   41.4700 C.ar  361  TRP361      0.0015
     74  N         -4.7040   29.0640   40.4350 N.3   398  HIS398     -0.1241
     75  CA        -4.8690   30.5020   40.4750 C.3   398  HIS398      0.1621
     76  C         -4.4790   31.0620   41.8600 C.2   398  HIS398      0.2264
     77  O         -5.0780   30.6900   42.8860 O.2   398  HIS398     -0.2867
     78  CB        -6.3010   30.8760   40.1560 C.3   398  HIS398      0.0745
     79  CG        -6.5180   32.3360   40.0360 C.ar  398  HIS398      0.0817
     80  ND1       -5.6500   33.1680   39.3490 N.ar  398  HIS398     -0.2268
     81  CD2       -7.4970   33.1230   40.5260 C.ar  398  HIS398      0.1154
     82  CE1       -6.1120   34.4060   39.4000 C.ar  398  HIS398      0.1986
     83  NE2       -7.2380   34.4010   40.0980 N.ar  398  HIS398     -0.2212
     84  N         -4.5150   34.6860   42.9440 N.3   400  GLU400     -0.1245
     85  CA        -4.7100   36.1280   43.1500 C.3   400  GLU400      0.1567
     86  C         -4.2240   36.5300   44.5590 C.2   400  GLU400      0.2260
     87  O         -4.6520   35.9280   45.5700 O.2   400  GLU400     -0.2867
     88  CB        -6.1790   36.5240   43.0370 C.3   400  GLU400      0.0388
     89  CG        -6.4400   37.9850   43.4750 C.3   400  GLU400      0.1160
     90  CD        -5.7500   38.9910   42.5170 C.2   400  GLU400      0.3649
     91  OE1       -6.0010   38.9070   41.2890 O.co2 400  GLU400     -0.2457
     92  OE2       -4.9420   39.8340   42.9740 O.co2 400  GLU400     -0.2457
     93  N         -1.3210   30.9030   37.6570 N.3   428  LYS428     -0.1245
     94  CA        -1.5530   32.2730   37.2880 C.3   428  LYS428      0.1561
     95  C         -1.7030   33.0750   38.5750 C.2   428  LYS428      0.2260
     96  O         -2.5770   32.7850   39.4090 O.2   428  LYS428     -0.2867
     97  CB        -2.8110   32.3870   36.4420 C.3   428  LYS428      0.0271
     98  CG        -3.3630   33.7910   36.3070 C.3   428  LYS428      0.0035
     99  CD        -4.7150   33.8020   35.4840 C.3   428  LYS428      0.0206
    100  CE        -5.3640   35.1770   35.5000 C.3   428  LYS428      0.1093
    101  NZ        -6.6340   35.2680   34.6740 N.3   428  LYS428     -0.1314
    102  N         -1.7090   37.1240   40.5560 N.3   430  GLY430     -0.1225
    103  CA        -2.1920   38.4520   40.2880 C.3   430  GLY430      0.1811
    104  C         -1.9380   39.3460   41.4970 C.2   430  GLY430      0.2280
    105  O         -1.6880   38.8700   42.5950 O.2   430  GLY430     -0.2866
    106  N         -3.8250   42.6420   42.1820 N.3   432  VAL432     -0.1245
    107  CA        -4.7610   43.7560   42.0540 C.3   432  VAL432      0.1561
    108  C         -4.9730   44.4300   43.4080 C.2   432  VAL432      0.2260
    109  O         -5.3360   43.7910   44.4130 O.2   432  VAL432     -0.2867
    110  CB        -6.1310   43.2910   41.5350 C.3   432  VAL432      0.0252
    111  CG1       -7.2000   44.4000   41.7350 C.3   432  VAL432      0.0019
    112  CG2       -6.0380   42.8590   40.1000 C.3   432  VAL432      0.0019
    113  N         -0.1910   38.2040   36.4340 N.3   468  HIS468     -0.1226
    114  CA        -0.9210   39.4110   36.0800 C.3   468  HIS468      0.1752
    115  C         -0.5420   40.5600   37.0550 C.2   468  HIS468      0.2595
    116  O         -0.1340   40.2830   38.1770 O.2   468  HIS468     -0.2718
    117  CB        -2.4160   39.1130   36.1310 C.3   468  HIS468      0.0759
    118  CG        -2.9400   38.4710   34.8850 C.ar  468  HIS468      0.0818
    119  ND1       -2.2680   37.4460   34.2500 N.ar  468  HIS468     -0.2268
    120  CD2       -4.0280   38.7390   34.1300 C.ar  468  HIS468      0.1154
    121  CE1       -2.9340   37.0880   33.1620 C.ar  468  HIS468      0.1986
    122  NE2       -4.0090   37.8450   33.0780 N.ar  468  HIS468     -0.2212
    123  N         -0.6110   41.8150   36.5680 N.am  469  GLU469     -0.1979
    124  CA        -0.2200   43.0320   37.2960 C.3   469  GLU469      0.1602
    125  C          1.2680   43.1990   37.6990 C.2   469  GLU469      0.2287
    126  O          1.6220   44.1710   38.3520 O.2   469  GLU469     -0.2864
    127  CB        -1.1000   43.2120   38.5340 C.3   469  GLU469      0.0415
    128  CG        -2.5700   43.4840   38.2080 C.3   469  GLU469      0.1163
    129  CD        -3.3830   42.2140   37.8990 C.2   469  GLU469      0.3649
    130  OE1       -3.1400   41.2050   38.5970 O.co2 469  GLU469     -0.2457
    131  OE2       -4.2450   42.2340   36.9410 O.co2 469  GLU469     -0.2457
    132  N          0.5360   39.5250   32.3170 N.3   487  GLU487     -0.1245
    133  CA        -0.4450   40.3520   31.6650 C.3   487  GLU487      0.1567
    134  C          0.3130   41.6670   31.4630 C.2   487  GLU487      0.2260
    135  O          1.0030   41.8190   30.4480 O.2   487  GLU487     -0.2867
    136  CB        -1.7050   40.5440   32.5110 C.3   487  GLU487      0.0388
    137  CG        -2.7990   41.2250   31.6980 C.3   487  GLU487      0.1160
    138  CD        -4.0660   41.3840   32.4940 C.2   487  GLU487      0.3649
    139  OE1       -4.0560   42.1100   33.5250 O.co2 487  GLU487     -0.2457
    140  OE2       -5.0940   40.8490   32.0430 O.co2 487  GLU487     -0.2457
    141  N         -9.6410   41.2410   29.0610 N.3   493  GLU493     -0.1245
    142  CA       -10.5720   41.4980   30.1430 C.3   493  GLU493      0.1567
    143  C        -11.1880   42.8890   29.9890 C.2   493  GLU493      0.2260
    144  O        -12.3770   43.0890   30.2980 O.2   493  GLU493     -0.2867
    145  CB        -9.8950   41.3620   31.5210 C.3   493  GLU493      0.0388
    146  CG        -8.7570   42.3330   31.7540 C.3   493  GLU493      0.1160
    147  CD        -8.3000   42.3730   33.2430 C.2   493  GLU493      0.3649
    148  OE1       -9.1010   42.0190   34.1570 O.co2 493  GLU493     -0.2457
    149  OE2       -7.1400   42.7720   33.5000 O.co2 493  GLU493     -0.2457
@<TRIPOS>BOND
     1   141   142    1
     2    13    14   ar
     3    13    11   ar
     4   143   142    1
     5   143   144    2
     6   142   145    1
     7    14    12   ar
     8   135   134    2
     9    11     8   ar
    10   134   133    1
    11   145   146    1
    12   133   132    1
    13   133   136    1
    14    12    10   ar
    15   137   138    1
    16   137   136    1
    17   146   147    1
    18   140   138   ar
    19     8    10   ar
    20     8     6   ar
    21    21    19    1
    22   138   139   ar
    23    10     9   ar
    24   122   121   ar
    25   122   120   ar
    26    19    20    1
    27    19    16    1
    28   121   119   ar
    29     6     5    1
    30     6     7   ar
    31   147   149   ar
    32   147   148   ar
    33     5     2    1
    34     3     2    1
    35     3     4    2
    36    20    22    1
    37    17    18    2
    38    17    16    1
    39     9     7   ar
    40     2     1    1
    41   120   118   ar
    42   119   118   ar
    43    16    15    1
    44   101   100    1
    45   118   117    1
    46    99   100    1
    47    99    98    1
    48   114   117    1
    49   114   113    1
    50   114   115    1
    51    98    97    1
    52    97    94    1
    53   123   115   am
    54   123   124    1
    55    45    43   ar
    56   131   129   ar
    57   115   116    2
    58    94    93    1
    59    94    95    1
    60   124   125    1
    61   124   127    1
    62    43    44   ar
    63    43    42    1
    64   125   126    2
    65   129   128    1
    66   129   130   ar
    67    42    41    1
    68   128   127    1
    69    34    36   ar
    70    34    32   ar
    71    36    35   ar
    72    95    96    2
    73    37    38    1
    74    41    38    1
    75    80    82   ar
    76    80    79   ar
    77    32    31   ar
    78    32    30   ar
    79    82    83   ar
    80    35    33   ar
    81    31    29   ar
    82    38    39    1
    83    79    78    1
    84    79    81   ar
    85    83    81   ar
    86   112   110    1
    87    40    39    2
    88    78    75    1
    89   103   102    1
    90   103   104    1
    91    74    75    1
    92    30    33   ar
    93    30    28   ar
    94    75    76    1
    95    29    28   ar
    96    28    27    1
    97    91    90   ar
    98    73    71   ar
    99    73    72   ar
   100   104   105    2
   101   110   111    1
   102   110   107    1
   103    71    69   ar
   104    76    77    2
   105    23    24    1
   106   107   106    1
   107   107   108    1
   108    72    70   ar
   109    24    27    1
   110    24    25    1
   111    90    92   ar
   112    90    89    1
   113    59    58   ar
   114    59    57   ar
   115    84    85    1
   116    58    56   ar
   117    69    68   ar
   118    69    67   ar
   119    88    85    1
   120    88    89    1
   121    85    86    1
   122    57    55   ar
   123   108   109    2
   124    70    67   ar
   125    68    66   ar
   126    25    26    2
   127    67    65   ar
   128    56    53   ar
   129    55    53   ar
   130    55    54   ar
   131    53    51   ar
   132    86    87    2
   133    66    65   ar
   134    54    52   ar
   135    65    64    1
   136    51    52   ar
   137    51    50    1
   138    64    61    1
   139    50    47    1
   140    63    62    2
   141    62    61    1
   142    49    48    2
   143    61    60    1
   144    47    48    1
   145    47    46    1
