@<TRIPOS>MOLECULE
tmp/2jkqA00.pdb
 190 176 0 0 0
SMALL
GASTEIGER

@<TRIPOS>ATOM
      1  N          5.8380    3.5790   38.3900 N.3    13  ARG13      -0.1245
      2  CA         7.1170    2.8570   38.2970 C.3    13  ARG13       0.1563
      3  C          7.9260    3.2010   37.0370 C.2    13  ARG13       0.2260
      4  O          7.3760    3.6030   36.0040 O.2    13  ARG13      -0.2867
      5  CB         6.9320    1.3340   38.4470 C.3    13  ARG13       0.0307
      6  CG         6.3850    0.6150   37.2200 C.3    13  ARG13       0.0489
      7  CD         6.5020   -0.9050   37.3370 C.3    13  ARG13       0.2205
      8  NE         5.6530   -1.5900   36.3540 N.pl3  13  ARG13      -0.0865
      9  CZ         6.0480   -2.0160   35.1510 C.cat  13  ARG13       0.5346
     10  NH1        7.3060   -1.8530   34.7390 N.pl3  13  ARG13       0.1354
     11  NH2        5.1740   -2.6170   34.3490 N.pl3  13  ARG13       0.1354
     12  N         10.0760    2.6310   33.7250 N.3    15  ILE15      -0.1231
     13  CA         9.8870    1.6670   32.6280 C.3    15  ILE15       0.1692
     14  C         11.0650    1.5680   31.6420 C.2    15  ILE15       0.2593
     15  O         11.0300    0.7720   30.6950 O.2    15  ILE15      -0.2718
     16  CB         8.5680    1.9430   31.8470 C.3    15  ILE15       0.0266
     17  CG1        8.5250    3.3960   31.3340 C.3    15  ILE15       0.0019
     18  CG2        7.3660    1.6220   32.7240 C.3    15  ILE15       0.0020
     19  CD1        7.3110    3.7320   30.4730 C.3    15  ILE15       0.0001
     20  N         12.0960    2.3770   31.8790 N.am   16  GLY16      -0.1942
     21  CA        13.2530    2.4740   30.9950 C.3    16  GLY16       0.2014
     22  C         14.0570    3.7340   31.2550 C.2    16  GLY16       0.2638
     23  O         13.7580    4.4920   32.1710 O.2    16  GLY16      -0.2714
     24  N         15.0710    3.9620   30.4260 N.am   17  GLU17      -0.1977
     25  CA        16.0280    5.0520   30.6130 C.3    17  GLU17       0.1602
     26  C         16.3670    5.6830   29.2640 C.2    17  GLU17       0.2287
     27  O         16.5810    4.9800   28.2750 O.2    17  GLU17      -0.2864
     28  CB        17.3020    4.5170   31.2950 C.3    17  GLU17       0.0415
     29  CG        18.4120    5.5550   31.5270 C.3    17  GLU17       0.1163
     30  CD        19.7350    4.9290   31.9860 C.2    17  GLU17       0.3649
     31  OE1       19.9480    4.7960   33.2190 O.co2  17  GLU17      -0.2457
     32  OE2       20.5710    4.5800   31.1130 O.co2  17  GLU17      -0.2457
     33  N         12.4410    7.0760   32.2200 N.3    23  VAL23      -0.1245
     34  CA        11.1030    7.0540   31.6770 C.3    23  VAL23       0.1561
     35  C         10.2390    6.3590   32.7110 C.2    23  VAL23       0.2260
     36  O         10.6270    5.3390   33.2830 O.2    23  VAL23      -0.2867
     37  CB        11.0190    6.3230   30.3190 C.3    23  VAL23       0.0252
     38  CG1        9.6830    6.6070   29.6490 C.3    23  VAL23       0.0019
     39  CG2       12.1650    6.7410   29.3920 C.3    23  VAL23       0.0019
     40  N          6.0760    5.1770   33.7790 N.3    25  GLN25      -0.1245
     41  CA         4.6640    5.0770   33.4780 C.3    25  GLN25       0.1566
     42  C          3.9050    5.8850   34.5370 C.2    25  GLN25       0.2260
     43  O          4.4160    6.1360   35.6390 O.2    25  GLN25      -0.2867
     44  CB         4.1960    3.6200   33.4180 C.3    25  GLN25       0.0367
     45  CG         4.1160    2.8980   34.7580 C.3    25  GLN25       0.0905
     46  CD         3.6040    1.4630   34.6310 C.2    25  GLN25       0.2608
     47  OE1        4.0420    0.5750   35.3610 O.2    25  GLN25      -0.2717
     48  NE2        2.6740    1.2330   33.7050 N.am   25  GLN25      -0.0878
     49  N          3.2090    7.4590   29.2300 N.3    39  ALA39      -0.1245
     50  CA         4.6320    7.3460   29.4840 C.3    39  ALA39       0.1562
     51  C          5.1030    8.7550   29.8000 C.2    39  ALA39       0.2260
     52  O          4.6720    9.7130   29.1580 O.2    39  ALA39      -0.2867
     53  CB         5.3500    6.7970   28.2640 C.3    39  ALA39       0.0290
     54  N          8.4580   10.9800   30.1230 N.3    41  LYS41      -0.1245
     55  CA         9.8930   11.1370   29.9330 C.3    41  LYS41       0.1561
     56  C         10.3920   12.2190   30.8730 C.2    41  LYS41       0.2260
     57  O          9.8340   13.3150   30.9030 O.2    41  LYS41      -0.2867
     58  CB        10.2060   11.5220   28.4910 C.3    41  LYS41       0.0271
     59  CG         9.9230   10.4320   27.4740 C.3    41  LYS41       0.0035
     60  CD        10.1030   10.9390   26.0570 C.3    41  LYS41       0.0206
     61  CE        11.5690   11.0440   25.6840 C.3    41  LYS41       0.1093
     62  NZ        11.7210   11.5110   24.2830 N.3    41  LYS41      -0.1314
     63  N          3.6470    6.1190   18.2780 N.3    71  VAL71      -0.1245
     64  CA         3.2900    6.6180   19.5990 C.3    71  VAL71       0.1561
     65  C          2.9530    8.1210   19.5300 C.2    71  VAL71       0.2260
     66  O          3.6190    8.8930   18.8330 O.2    71  VAL71      -0.2867
     67  CB         4.4010    6.2580   20.6340 C.3    71  VAL71       0.0252
     68  CG1        5.6690    7.0900   20.4150 C.3    71  VAL71       0.0019
     69  CG2        3.8900    6.3570   22.0620 C.3    71  VAL71       0.0019
     70  N          3.9790   11.0190   26.8530 N.3    86  MET86      -0.1230
     71  CA         3.6040   10.2490   25.6770 C.3    86  MET86       0.1702
     72  C          2.4690    9.2840   26.0350 C.2    86  MET86       0.2592
     73  O          2.2140    9.0190   27.2200 O.2    86  MET86      -0.2718
     74  CB         4.8070    9.4470   25.1560 C.3    86  MET86       0.0401
     75  CG         6.0590   10.2730   24.8220 C.3    86  MET86       0.0596
     76  SD         5.7560   11.4780   23.5230 S.3    86  MET86      -0.1393
     77  CE         5.6980   10.4000   22.0950 C.3    86  MET86       0.0692
     78  N          1.7890    8.7570   25.0150 N.am   87  GLU87      -0.1966
     79  CA         0.8290    7.6900   25.2430 C.3    87  GLU87       0.1733
     80  C          1.5870    6.4390   25.6770 C.2    87  GLU87       0.2616
     81  O          2.7260    6.2290   25.2660 O.2    87  GLU87      -0.2715
     82  CB        -0.0500    7.4490   24.0040 C.3    87  GLU87       0.0429
     83  CG         0.4170    6.3720   23.0280 C.3    87  GLU87       0.1163
     84  CD        -0.1500    6.5720   21.6380 C.2    87  GLU87       0.3649
     85  OE1        0.2450    5.8530   20.6980 O.co2  87  GLU87      -0.2457
     86  OE2       -0.9890    7.4720   21.4710 O.co2  87  GLU87      -0.2457
     87  N          0.9540    5.6330   26.5260 N.am   88  LEU88      -0.1963
     88  CA         1.5600    4.3940   27.0050 C.3    88  LEU88       0.1728
     89  C          1.2460    3.2050   26.1020 C.2    88  LEU88       0.2616
     90  O          0.1230    3.0450   25.6050 O.2    88  LEU88      -0.2715
     91  CB         1.1120    4.0780   28.4390 C.3    88  LEU88       0.0311
     92  CG         1.8840    2.9800   29.1840 C.3    88  LEU88       0.0022
     93  CD1        3.2110    3.5080   29.7190 C.3    88  LEU88       0.0001
     94  CD2        1.0480    2.4120   30.3070 C.3    88  LEU88       0.0001
     95  N          2.2620    2.3830   25.8820 N.am   89  CYS89      -0.1954
     96  CA         2.0410    1.0660   25.3540 C.3    89  CYS89       0.1843
     97  C          2.2220    0.1060   26.5180 C.2    89  CYS89       0.2626
     98  O          3.3380   -0.2460   26.9000 O.2    89  CYS89      -0.2714
     99  CB         2.9730    0.7980   24.1900 C.3    89  CYS89       0.0997
    100  SG         2.7590    2.0260   22.8750 S.3    89  CYS89      -0.0797
    101  N          1.0790   -0.2800   27.0780 N.am   90  THR90      -0.1950
    102  CA         0.9470   -0.9910   28.3520 C.3    90  THR90       0.1897
    103  C          1.6830   -2.3330   28.4270 C.2    90  THR90       0.2313
    104  O          2.1550   -2.7320   29.4910 O.2    90  THR90      -0.2863
    105  CB        -0.5560   -1.1990   28.6650 C.3    90  THR90       0.1794
    106  OG1       -0.9460   -2.5460   28.3820 O.3    90  THR90      -0.2208
    107  CG2       -1.3960   -0.2870   27.7800 C.3    90  THR90       0.0378
    108  N          4.4700   -3.2480   26.7800 N.3    92  GLY92      -0.1210
    109  CA         5.9230   -3.0720   26.8160 C.3    92  GLY92       0.1956
    110  C          6.6220   -3.1860   25.4780 C.2    92  GLY92       0.2611
    111  O          6.0330   -2.9340   24.4330 O.2    92  GLY92      -0.2717
    112  N          7.8930   -3.5630   25.5250 N.am   93  GLU93      -0.1979
    113  CA         8.7150   -3.7150   24.3290 C.3    93  GLU93       0.1602
    114  C          8.3520   -4.9910   23.5710 C.2    93  GLU93       0.2287
    115  O          7.9770   -6.0030   24.1770 O.2    93  GLU93      -0.2864
    116  CB        10.1950   -3.7520   24.7110 C.3    93  GLU93       0.0415
    117  CG        10.5510   -2.8480   25.8910 C.3    93  GLU93       0.1163
    118  CD        11.6640   -3.4210   26.7770 C.2    93  GLU93       0.3649
    119  OE1       12.2460   -2.6290   27.5670 O.co2  93  GLU93      -0.2457
    120  OE2       11.9640   -4.6550   26.6990 O.co2  93  GLU93      -0.2457
    121  N         10.2950   -7.1060   21.8750 N.3    95  ARG95      -0.1231
    122  CA        11.2420   -8.2140   22.1120 C.3    95  ARG95       0.1694
    123  C         10.9190   -9.0880   23.3220 C.2    95  ARG95       0.2592
    124  O         10.9330  -10.3180   23.2180 O.2    95  ARG95      -0.2718
    125  CB        12.6770   -7.6970   22.2280 C.3    95  ARG95       0.0321
    126  CG        13.3360   -7.4450   20.8940 C.3    95  ARG95       0.0489
    127  CD        14.8150   -7.1480   21.0340 C.3    95  ARG95       0.2205
    128  NE        15.5380   -8.3120   21.5420 N.pl3  95  ARG95      -0.0865
    129  CZ        16.3150   -8.3110   22.6250 C.cat  95  ARG95       0.5346
    130  NH1       16.5050   -7.1920   23.3230 N.pl3  95  ARG95       0.1354
    131  NH2       16.9270   -9.4320   22.9970 N.pl3  95  ARG95       0.1354
    132  N         10.6450   -8.4550   24.4620 N.am   96  SER96      -0.1952
    133  CA        10.2810   -9.1820   25.6830 C.3    96  SER96       0.1924
    134  C          8.9690   -9.9410   25.5150 C.2    96  SER96       0.2314
    135  O          8.8200  -11.0710   25.9980 O.2    96  SER96      -0.2863
    136  CB        10.1760   -8.2290   26.8660 C.3    96  SER96       0.2116
    137  OG        11.4050   -7.5670   27.0620 O.3    96  SER96      -0.2180
    138  N         13.8310   -3.5100   19.3490 N.3   137  ARG137     -0.1231
    139  CA        13.9780   -2.8730   20.6580 C.3   137  ARG137      0.1694
    140  C         13.1120   -1.6040   20.7090 C.2   137  ARG137      0.2592
    141  O         12.6170   -1.2130   21.7770 O.2   137  ARG137     -0.2718
    142  CB        15.4510   -2.5660   20.9850 C.3   137  ARG137      0.0321
    143  CG        16.1110   -1.5130   20.0910 C.3   137  ARG137      0.0489
    144  CD        17.5060   -1.1120   20.5700 C.3   137  ARG137      0.2205
    145  NE        18.1590   -0.2150   19.6030 N.pl3 137  ARG137     -0.0865
    146  CZ        18.8190   -0.6110   18.5070 C.cat 137  ARG137      0.5346
    147  NH1       18.9400   -1.9040   18.2090 N.pl3 137  ARG137      0.1354
    148  NH2       19.3620    0.2960   17.7020 N.pl3 137  ARG137      0.1354
    149  N         12.9040   -1.0100   19.5290 N.am  138  ASN138     -0.1974
    150  CA        12.2070    0.2650   19.3730 C.3   138  ASN138      0.1688
    151  C         10.7260    0.1510   19.0370 C.2   138  ASN138      0.2292
    152  O         10.0380    1.1670   18.8880 O.2   138  ASN138     -0.2864
    153  CB        12.9120    1.1070   18.3200 C.3   138  ASN138      0.1181
    154  CG        14.3220    1.4440   18.7150 C.2   138  ASN138      0.2629
    155  OD1       14.6290    1.6020   19.9000 O.2   138  ASN138     -0.2716
    156  ND2       15.1940    1.5610   17.7260 N.am  138  ASN138     -0.0877
    157  N          6.9520   -1.0520   20.3050 N.3   140  LEU140     -0.1245
    158  CA         6.2200   -1.2580   21.5530 C.3   140  LEU140      0.1561
    159  C          4.8610   -1.9010   21.2910 C.2   140  LEU140      0.2260
    160  O          4.3250   -1.8220   20.1790 O.2   140  LEU140     -0.2867
    161  CB         6.0490    0.0640   22.3170 C.3   140  LEU140      0.0270
    162  CG         7.2560    1.0040   22.4580 C.3   140  LEU140      0.0019
    163  CD1        6.8410    2.2580   23.2050 C.3   140  LEU140      0.0001
    164  CD2        8.4590    0.3290   23.1390 C.3   140  LEU140      0.0001
    165  N          8.0010    3.2110   19.1230 N.3   150  GLY150     -0.1210
    166  CA         8.1400    4.0410   20.3080 C.3   150  GLY150      0.1956
    167  C          8.6720    5.4140   19.9700 C.2   150  GLY150      0.2611
    168  O          8.9340    5.7350   18.8060 O.2   150  GLY150     -0.2717
    169  N          8.8220    6.2350   21.0020 N.am  151  ASP151     -0.1973
    170  CA         9.4330    7.5480   20.8560 C.3   151  ASP151      0.1709
    171  C         10.7940    7.4690   20.1330 C.2   151  ASP151      0.2293
    172  O         11.6960    6.7310   20.5430 O.2   151  ASP151     -0.2864
    173  CB         9.5710    8.2060   22.2260 C.3   151  ASP151      0.1436
    174  CG        10.3240    9.5050   22.1640 C.2   151  ASP151      0.3671
    175  OD1        9.7770   10.4870   21.6150 O.co2 151  ASP151     -0.2456
    176  OD2       11.4720    9.5500   22.6570 O.co2 151  ASP151     -0.2456
    177  N         13.9040    8.1240   22.1910 N.3   154  LEU154     -0.1231
    178  CA        14.4590    7.0080   22.9700 C.3   154  LEU154      0.1693
    179  C         14.9900    5.8410   22.1310 C.2   154  LEU154      0.2592
    180  O         15.1300    4.7270   22.6440 O.2   154  LEU154     -0.2718
    181  CB        13.3970    6.4480   23.9150 C.3   154  LEU154      0.0284
    182  CG        12.6960    7.3820   24.8810 C.3   154  LEU154      0.0019
    183  CD1       11.4160    6.7090   25.3540 C.3   154  LEU154      0.0001
    184  CD2       13.6150    7.7400   26.0440 C.3   154  LEU154      0.0001
    185  N         15.2890    6.0720   20.8560 N.am  155  SER155     -0.1952
    186  CA        15.5850    4.9420   19.9670 C.3   155  SER155      0.1924
    187  C         16.9630    5.0310   19.3150 C.2   155  SER155      0.2314
    188  O         17.8250    5.8090   19.7310 O.2   155  SER155     -0.2863
    189  CB        14.4970    4.8060   18.8910 C.3   155  SER155      0.2116
    190  OG        13.2010    5.1140   19.3960 O.3   155  SER155     -0.2180
@<TRIPOS>BOND
     1   148   146    1
     2   156   154   am
     3   147   146    1
     4    63    64    1
     5   153   154    1
     6   153   150    1
     7   146   145    2
     8   154   155    2
     9   168   167    2
    10    66    65    2
    11   152   151    2
    12   189   190    1
    13   189   186    1
    14   151   150    1
    15   165   166    1
    16   187   188    2
    17   187   186    1
    18   138   139    1
    19   150   149    1
    20   149   140   am
    21    65    64    1
    22    64    67    1
    23   145   144    1
    24   186   185    1
    25   167   166    1
    26   167   169   am
    27   143   144    1
    28   143   142    1
    29   171   172    2
    30   171   170    1
    31   160   159    2
    32   157   158    1
    33    68    67    1
    34    67    69    1
    35   139   140    1
    36   139   142    1
    37    85    84   ar
    38   140   141    2
    39   170   169    1
    40   170   173    1
    41   185   179   am
    42   126   127    1
    43   126   125    1
    44   127   128    1
    45   159   158    1
    46    86    84   ar
    47   128   129    2
    48   158   161    1
    49   175   174   ar
    50    84    83    1
    51   121   122    1
    52    77    76    1
    53   122   125    1
    54   122   123    1
    55   179   180    2
    56   179   178    1
    57   174   173    1
    58   174   176   ar
    59   177   178    1
    60   161   162    1
    61   162   164    1
    62   162   163    1
    63   129   131    1
    64   129   130    1
    65   100    99    1
    66   178   181    1
    67    83    82    1
    68   124   123    2
    69   123   132   am
    70    76    75    1
    71   114   115    2
    72   114   113    1
    73   181   182    1
    74    82    79    1
    75    99    96    1
    76    62    61    1
    77   113   116    1
    78   113   112    1
    79   111   110    2
    80   132   133    1
    81   116   117    1
    82    75    74    1
    83   182   183    1
    84   182   184    1
    85    78    79    1
    86    78    72   am
    87    74    71    1
    88    79    80    1
    89    81    80    2
    90    96    95    1
    91    96    97    1
    92   110   112   am
    93   110   109    1
    94   134   133    1
    95   134   135    2
    96    90    89    2
    97    71    72    1
    98    71    70    1
    99    80    87   am
   100   133   136    1
   101    61    60    1
   102    95    89   am
   103   117   118    1
   104    72    73    2
   105    60    59    1
   106    89    88    1
   107    97    98    2
   108    97   101   am
   109    87    88    1
   110   120   118   ar
   111   118   119   ar
   112   108   109    1
   113   136   137    1
   114    88    91    1
   115   101   102    1
   116    59    58    1
   117   107   105    1
   118    53    50    1
   119    27    26    2
   120   102   103    1
   121   102   105    1
   122   106   105    1
   123   103   104    2
   124    91    92    1
   125    58    55    1
   126    52    51    2
   127    92    93    1
   128    92    94    1
   129    49    50    1
   130    26    25    1
   131    39    37    1
   132    50    51    1
   133    38    37    1
   134    55    54    1
   135    55    56    1
   136    37    34    1
   137    24    25    1
   138    24    22   am
   139    19    17    1
   140    25    28    1
   141    15    14    2
   142    56    57    2
   143    21    22    1
   144    21    20    1
   145    32    30   ar
   146    22    23    2
   147    28    29    1
   148    17    16    1
   149    29    30    1
   150    14    20   am
   151    14    13    1
   152    34    33    1
   153    34    35    1
   154    16    13    1
   155    16    18    1
   156    30    31   ar
   157    13    12    1
   158    35    36    2
   159    44    41    1
   160    44    45    1
   161    41    40    1
   162    41    42    1
   163    48    46   am
   164    11     9    1
   165    42    43    2
   166    46    45    1
   167    46    47    2
   168    10     9    1
   169     9     8    2
   170     4     3    2
   171     8     7    1
   172     3     2    1
   173     6     7    1
   174     6     5    1
   175     2     1    1
   176     2     5    1
