@<TRIPOS>MOLECULE
tmp/2jkrI00.pdb
 170 164 0 0 0
SMALL
GASTEIGER

@<TRIPOS>ATOM
      1  N         58.8680  -23.7490  -93.5770 N.3     9  ASN9       -0.1225
      2  CA        58.2080  -25.0380  -93.3770 C.3     9  ASN9        0.1785
      3  C         57.4390  -25.1890  -92.0550 C.2     9  ASN9        0.2597
      4  O         57.3600  -24.2500  -91.2510 O.2     9  ASN9       -0.2718
      5  CB        59.2190  -26.1600  -93.5150 C.3     9  ASN9        0.1169
      6  CG        60.1540  -26.2170  -92.3550 C.2     9  ASN9        0.2627
      7  OD1       60.0340  -25.4340  -91.4150 O.2     9  ASN9       -0.2716
      8  ND2       61.1040  -27.1400  -92.4070 N.am    9  ASN9       -0.0877
      9  N         56.8790  -26.3820  -91.8370 N.am   10  ARG10      -0.1966
     10  CA        55.9800  -26.6190  -90.7000 C.3    10  ARG10       0.1729
     11  C         56.6720  -26.3710  -89.3480 C.2    10  ARG10       0.2616
     12  O         56.0150  -26.2610  -88.3080 O.2    10  ARG10      -0.2715
     13  CB        55.3810  -28.0370  -90.7210 C.3    10  ARG10       0.0348
     14  CG        54.8420  -28.5420  -92.0520 C.3    10  ARG10       0.0492
     15  CD        54.4330  -30.0230  -91.9310 C.3    10  ARG10       0.2205
     16  NE        54.2180  -30.6890  -93.2230 N.pl3  10  ARG10      -0.0865
     17  CZ        54.1060  -32.0100  -93.3890 C.cat  10  ARG10       0.5346
     18  NH1       54.1940  -32.8310  -92.3470 N.pl3  10  ARG10       0.1354
     19  NH2       53.9110  -32.5180  -94.6010 N.pl3  10  ARG10       0.1354
     20  N         57.9970  -26.3050  -89.3680 N.am   11  ALA11      -0.1977
     21  CA        58.7700  -26.0540  -88.1630 C.3    11  ALA11       0.1597
     22  C         59.2550  -24.6020  -88.0640 C.2    11  ALA11       0.2287
     23  O         59.7410  -24.1660  -87.0110 O.2    11  ALA11      -0.2864
     24  CB        59.9540  -27.0090  -88.0920 C.3    11  ALA11       0.0319
     25  N         63.1530  -20.6260  -95.7800 N.3    15  ARG15      -0.1245
     26  CA        63.8530  -21.2350  -96.9130 C.3    15  ARG15       0.1563
     27  C         63.8810  -20.3110  -98.1260 C.2    15  ARG15       0.2260
     28  O         64.3750  -20.6630  -99.1890 O.2    15  ARG15      -0.2867
     29  CB        63.2340  -22.5930  -97.2620 C.3    15  ARG15       0.0307
     30  CG        63.3050  -23.5530  -96.1000 C.3    15  ARG15       0.0489
     31  CD        63.4590  -24.9770  -96.5440 C.3    15  ARG15       0.2205
     32  NE        63.7070  -25.8790  -95.4230 N.pl3  15  ARG15      -0.0865
     33  CZ        64.8840  -26.0090  -94.8180 C.cat  15  ARG15       0.5346
     34  NH1       65.9160  -25.2880  -95.2140 N.pl3  15  ARG15       0.1354
     35  NH2       65.0280  -26.8570  -93.8150 N.pl3  15  ARG15       0.1354
     36  N         52.0170  -25.8770  -99.1590 N.3    62  TYR62      -0.1227
     37  CA        52.2670  -26.7900 -100.2560 C.3    62  TYR62       0.1736
     38  C         53.2300  -27.8440  -99.7010 C.2    62  TYR62       0.2595
     39  O         54.4210  -27.5760  -99.5280 O.2    62  TYR62      -0.2718
     40  CB        52.9040  -26.0500 -101.4360 C.3    62  TYR62       0.0548
     41  CG        52.0150  -25.0880 -102.1990 C.ar   62  TYR62      -0.0200
     42  CD1       51.7440  -23.8200 -101.7160 C.ar   62  TYR62      -0.0009
     43  CD2       51.4910  -25.4350 -103.4370 C.ar   62  TYR62      -0.0009
     44  CE1       50.9480  -22.9400 -102.4270 C.ar   62  TYR62       0.0417
     45  CE2       50.6910  -24.5560 -104.1580 C.ar   62  TYR62       0.0417
     46  CZ        50.4270  -23.3140 -103.6530 C.ar   62  TYR62       0.1957
     47  OH        49.6430  -22.4470 -104.3860 O.3    62  TYR62      -0.2866
     48  N         52.7140  -29.0330  -99.4080 N.am   63  ALA63      -0.1966
     49  CA        53.4830  -30.0240  -98.6640 C.3    63  ALA63       0.1728
     50  C         53.8530  -29.4890  -97.2770 C.2    63  ALA63       0.2617
     51  O         52.9720  -29.1070  -96.5110 O.2    63  ALA63      -0.2715
     52  CB        54.7260  -30.4440  -99.4350 C.3    63  ALA63       0.0334
     53  N         55.1450  -29.4830  -96.9510 N.am   64  GLY64      -0.1940
     54  CA        55.6130  -28.9650  -95.6730 C.3    64  GLY64       0.2014
     55  C         55.9070  -27.4720  -95.7150 C.2    64  GLY64       0.2638
     56  O         56.3170  -26.8600  -94.7230 O.2    64  GLY64      -0.2714
     57  N         55.6810  -26.8780  -96.8800 N.am   65  LEU65      -0.1977
     58  CA        56.0240  -25.4820  -97.1150 C.3    65  LEU65       0.1596
     59  C         54.8640  -24.4950  -97.0480 C.2    65  LEU65       0.2287
     60  O         53.8600  -24.6290  -97.7400 O.2    65  LEU65      -0.2864
     61  CB        56.7050  -25.3500  -98.4660 C.3    65  LEU65       0.0297
     62  CG        58.0920  -25.9520  -98.4340 C.3    65  LEU65       0.0022
     63  CD1       58.8020  -25.5820  -99.7200 C.3    65  LEU65       0.0001
     64  CD2       58.8160  -25.4290  -97.1940 C.3    65  LEU65       0.0001
     65  N         53.9290  -20.9010  -98.1120 N.3    67  PHE67      -0.1241
     66  CA        54.2860  -19.7550  -98.9240 C.3    67  PHE67       0.1605
     67  C         53.5130  -18.5540  -98.4460 C.2    67  PHE67       0.2264
     68  O         52.3030  -18.4610  -98.6580 O.2    67  PHE67      -0.2867
     69  CB        53.9760  -20.0220 -100.3850 C.3    67  PHE67       0.0534
     70  CG        54.9910  -20.8830 -101.0650 C.ar   67  PHE67      -0.0203
     71  CD1       55.2380  -22.1720 -100.6120 C.ar   67  PHE67      -0.0042
     72  CD2       55.6860  -20.4120 -102.1640 C.ar   67  PHE67      -0.0042
     73  CE1       56.1660  -22.9690 -101.2400 C.ar   67  PHE67      -0.0003
     74  CE2       56.6190  -21.2080 -102.8000 C.ar   67  PHE67      -0.0003
     75  CZ        56.8620  -22.4860 -102.3420 C.ar   67  PHE67      -0.0000
     76  N         50.4890  -18.9090 -106.0110 N.3    85  HIS85      -0.1241
     77  CA        50.3310  -20.1770 -106.7130 C.3    85  HIS85       0.1621
     78  C         51.0820  -20.2410 -108.0380 C.2    85  HIS85       0.2264
     79  O         51.7270  -21.2460 -108.3110 O.2    85  HIS85      -0.2867
     80  CB        48.8700  -20.5610 -106.9270 C.3    85  HIS85       0.0745
     81  CG        48.6950  -21.9200 -107.5220 C.ar   85  HIS85       0.0817
     82  ND1       48.6570  -23.0680 -106.7570 N.ar   85  HIS85      -0.2268
     83  CD2       48.5680  -22.3250 -108.8090 C.ar   85  HIS85       0.1154
     84  CE1       48.5120  -24.1180 -107.5430 C.ar   85  HIS85       0.1986
     85  NE2       48.4510  -23.6920 -108.7960 N.ar   85  HIS85      -0.2212
     86  N         54.6920  -20.8060 -107.4780 N.3    88  VAL88      -0.1231
     87  CA        54.9890  -22.2000 -107.2080 C.3    88  VAL88       0.1692
     88  C         55.0060  -22.9660 -108.5420 C.2    88  VAL88       0.2591
     89  O         55.8970  -23.7540 -108.7940 O.2    88  VAL88      -0.2718
     90  CB        53.9520  -22.8220 -106.2470 C.3    88  VAL88       0.0266
     91  CG1       54.1230  -24.3240 -106.2000 C.3    88  VAL88       0.0020
     92  CG2       54.0670  -22.2320 -104.8450 C.3    88  VAL88       0.0020
     93  N         54.0350  -22.7070 -109.4150 N.am   89  GLU89      -0.1979
     94  CA        53.9600  -23.4000 -110.7010 C.3    89  GLU89       0.1602
     95  C         55.1690  -23.1730 -111.5780 C.2    89  GLU89       0.2287
     96  O         55.5860  -24.0560 -112.3180 O.2    89  GLU89      -0.2864
     97  CB        52.6960  -23.0120 -111.4500 C.3    89  GLU89       0.0415
     98  CG        51.4730  -23.6660 -110.8520 C.3    89  GLU89       0.1163
     99  CD        50.2710  -23.6150 -111.7510 C.2    89  GLU89       0.3649
    100  OE1       50.4340  -23.2540 -112.9440 O.co2  89  GLU89      -0.2457
    101  OE2       49.1700  -23.9550 -111.2550 O.co2  89  GLU89      -0.2457
    102  N         58.2140  -22.5220 -110.2540 N.3    91  LEU91      -0.1231
    103  CA        59.2610  -23.2950 -109.5660 C.3    91  LEU91       0.1693
    104  C         59.2500  -24.7710 -109.9460 C.2    91  LEU91       0.2592
    105  O         60.2940  -25.4060 -110.0820 O.2    91  LEU91      -0.2718
    106  CB        59.0990  -23.2130 -108.0550 C.3    91  LEU91       0.0284
    107  CG        59.2940  -21.9230 -107.2960 C.3    91  LEU91       0.0019
    108  CD1       59.3530  -22.3490 -105.8480 C.3    91  LEU91       0.0001
    109  CD2       60.5750  -21.2110 -107.7240 C.3    91  LEU91       0.0001
    110  N         58.0470  -25.3140 -110.0780 N.am   92  ASN92      -0.1974
    111  CA        57.8450  -26.7150 -110.3870 C.3    92  ASN92       0.1688
    112  C         58.2020  -27.0120 -111.8270 C.2    92  ASN92       0.2292
    113  O         58.4940  -28.1470 -112.1740 O.2    92  ASN92      -0.2864
    114  CB        56.3890  -27.0650 -110.1500 C.3    92  ASN92       0.1181
    115  CG        56.1250  -28.5270 -110.2830 C.2    92  ASN92       0.2629
    116  OD1       55.2010  -28.9350 -110.9880 O.2    92  ASN92      -0.2716
    117  ND2       56.9430  -29.3410 -109.6130 N.am   92  ASN92      -0.0877
    118  N         59.0160  -31.1850 -110.9230 N.3    97  ASN97      -0.1225
    119  CA        58.5690  -31.7850 -109.6570 C.3    97  ASN97       0.1785
    120  C         59.2980  -31.2580 -108.4170 C.2    97  ASN97       0.2597
    121  O         59.8880  -32.0140 -107.6370 O.2    97  ASN97      -0.2718
    122  CB        58.5970  -33.3170 -109.7150 C.3    97  ASN97       0.1169
    123  CG        57.4330  -33.8840 -110.4980 C.2    97  ASN97       0.2627
    124  OD1       56.2760  -33.5140 -110.2730 O.2    97  ASN97      -0.2716
    125  ND2       57.7310  -34.7740 -111.4340 N.am   97  ASN97      -0.0877
    126  N         59.2350  -29.9470 -108.2460 N.am   98  VAL98      -0.1966
    127  CA        59.9410  -29.2710 -107.1690 C.3    98  VAL98       0.1727
    128  C         59.5530  -29.7790 -105.7820 C.2    98  VAL98       0.2616
    129  O         58.4540  -30.2580 -105.5820 O.2    98  VAL98      -0.2715
    130  CB        59.6310  -27.7820 -107.2280 C.3    98  VAL98       0.0290
    131  CG1       58.2120  -27.5400 -106.7540 C.3    98  VAL98       0.0023
    132  CG2       60.6250  -26.9870 -106.4090 C.3    98  VAL98       0.0023
    133  N         60.4660  -29.6650 -104.8270 N.am   99  CYS99      -0.1954
    134  CA        60.1760  -29.9680 -103.4300 C.3    99  CYS99       0.1843
    135  C         61.0760  -29.1250 -102.5230 C.2    99  CYS99       0.2625
    136  O         61.9500  -28.4050 -103.0310 O.2    99  CYS99      -0.2714
    137  CB        60.4240  -31.4440 -103.1580 C.3    99  CYS99       0.0997
    138  SG        62.1670  -31.9290 -103.1670 S.3    99  CYS99      -0.0797
    139  N         60.8830  -29.2170 -101.1990 N.am  100  GLU100     -0.1963
    140  CA        61.6830  -28.4220 -100.2430 C.3   100  GLU100      0.1733
    141  C         63.1650  -28.4500 -100.5510 C.2   100  GLU100      0.2616
    142  O         63.8350  -27.4210 -100.5740 O.2   100  GLU100     -0.2715
    143  CB        61.5260  -28.9030  -98.8060 C.3   100  GLU100      0.0429
    144  CG        60.6830  -28.0020  -97.9150 C.3   100  GLU100      0.1163
    145  CD        60.9680  -28.1940  -96.4220 C.2   100  GLU100      0.3649
    146  OE1       60.0490  -28.6130  -95.6810 O.co2 100  GLU100     -0.2457
    147  OE2       62.1110  -27.9320  -95.9910 O.co2 100  GLU100     -0.2457
    148  N         63.6930  -29.6390 -100.7720 N.am  101  LEU101     -0.1977
    149  CA        65.1180  -29.7530 -101.0070 C.3   101  LEU101      0.1596
    150  C         65.6120  -28.8930 -102.1530 C.2   101  LEU101      0.2287
    151  O         66.5700  -28.1480 -101.9770 O.2   101  LEU101     -0.2864
    152  CB        65.5180  -31.1980 -101.2090 C.3   101  LEU101      0.0297
    153  CG        65.7240  -31.9030  -99.8760 C.3   101  LEU101      0.0022
    154  CD1       66.7140  -33.0120 -100.1150 C.3   101  LEU101      0.0001
    155  CD2       66.2350  -30.9270  -98.8130 C.3   101  LEU101      0.0001
    156  N         64.6240  -26.1780 -103.1850 N.3   103  LEU103     -0.1231
    157  CA        64.6630  -24.8120 -102.6500 C.3   103  LEU103      0.1693
    158  C         65.7860  -24.5110 -101.6480 C.2   103  LEU103      0.2591
    159  O         66.1110  -23.3480 -101.3870 O.2   103  LEU103     -0.2718
    160  CB        63.3370  -24.4830 -101.9690 C.3   103  LEU103      0.0284
    161  CG        62.1000  -24.6760 -102.8400 C.3   103  LEU103      0.0019
    162  CD1       60.8680  -24.0950 -102.1420 C.3   103  LEU103      0.0001
    163  CD2       62.3120  -24.0780 -104.2500 C.3   103  LEU103      0.0001
    164  N         66.3460  -25.5530 -101.0550 N.am  104  VAL104     -0.1980
    165  CA        67.4620  -25.3870 -100.1440 C.3   104  VAL104      0.1595
    166  C         68.7580  -25.4740 -100.9220 C.2   104  VAL104      0.2287
    167  O         69.5060  -24.5070 -100.9970 O.2   104  VAL104     -0.2864
    168  CB        67.4640  -26.4640  -99.0470 C.3   104  VAL104      0.0276
    169  CG1       68.7540  -26.3980  -98.2540 C.3   104  VAL104      0.0022
    170  CG2       66.2700  -26.2850  -98.1330 C.3   104  VAL104      0.0022
@<TRIPOS>BOND
     1   100    99   ar
     2    96    95    2
     3   113   112    2
     4   112   111    1
     5    99   101   ar
     6    99    98    1
     7    95    94    1
     8    97    98    1
     9    97    94    1
    10   125   123   am
    11   116   115    2
    12   118   119    1
    13    94    93    1
    14   123   124    2
    15   123   122    1
    16   111   114    1
    17   111   110    1
    18   115   114    1
    19   115   117   am
    20   102   103    1
    21   105   104    2
    22   110   104   am
    23   104   103    1
    24   122   119    1
    25   119   120    1
    26   103   106    1
    27    93    88   am
    28    83    85   ar
    29    83    81   ar
    30    85    84   ar
    31    89    88    2
    32    88    87    1
    33   120   126   am
    34   120   121    2
    35    79    78    2
    36   126   127    1
    37   106   107    1
    38    78    77    1
    39   109   107    1
    40    84    82   ar
    41    81    80    1
    42    81    82   ar
    43    86    87    1
    44   107   108    1
    45   130   127    1
    46   130   131    1
    47   130   132    1
    48    87    90    1
    49   127   128    1
    50    80    77    1
    51    77    76    1
    52    90    91    1
    53    90    92    1
    54   128   129    2
    55   128   133   am
    56   133   134    1
    57    47    46    1
    58   163   161    1
    59    45    46   ar
    60    45    43   ar
    61    46    44   ar
    62    43    41   ar
    63   134   137    1
    64   134   135    1
    65   156   157    1
    66   138   137    1
    67   136   135    2
    68   161   162    1
    69   161   160    1
    70    74    75   ar
    71    74    72   ar
    72   157   160    1
    73   157   158    1
    74   135   139   am
    75    44    42   ar
    76    75    73   ar
    77    41    42   ar
    78    41    40    1
    79    72    70   ar
    80   150   151    2
    81   150   149    1
    82   158   159    2
    83   158   164   am
    84    40    37    1
    85    73    71   ar
    86   152   149    1
    87   152   153    1
    88   139   140    1
    89    70    71   ar
    90    70    69    1
    91   164   165    1
    92   149   148    1
    93   167   166    2
    94   166   165    1
    95   148   141   am
    96   142   141    2
    97   141   140    1
    98    69    66    1
    99    37    38    1
   100    37    36    1
   101   140   143    1
   102   165   168    1
   103   154   153    1
   104   153   155    1
   105    63    62    1
   106    38    39    2
   107    38    48   am
   108    52    49    1
   109    48    49    1
   110    28    27    2
   111   168   169    1
   112   168   170    1
   113    66    67    1
   114    66    65    1
   115   143   144    1
   116    49    50    1
   117    68    67    2
   118    61    62    1
   119    61    58    1
   120    62    64    1
   121    27    26    1
   122   144   145    1
   123    60    59    2
   124    50    53   am
   125    50    51    2
   126    29    26    1
   127    29    30    1
   128    58    59    1
   129    58    57    1
   130    53    54    1
   131    26    25    1
   132    57    55   am
   133    31    30    1
   134    31    32    1
   135   145   147   ar
   136   145   146   ar
   137    55    54    1
   138    55    56    2
   139    32    33    2
   140    34    33    1
   141    33    35    1
   142    19    17    1
   143     1     2    1
   144     5     2    1
   145     5     6    1
   146    17    16    2
   147    17    18    1
   148     2     3    1
   149    16    15    1
   150     8     6   am
   151     6     7    2
   152     3     9   am
   153     3     4    2
   154    14    15    1
   155    14    13    1
   156     9    10    1
   157    13    10    1
   158    10    11    1
   159    20    11   am
   160    20    21    1
   161    11    12    2
   162    21    24    1
   163    21    22    1
   164    22    23    2
