@<TRIPOS>MOLECULE
tmp/2jkvC01.pdb
 202 191 0 0 0
SMALL
GASTEIGER

@<TRIPOS>ATOM
      1  N         12.9970   19.9140   87.8490 N.3     9  GLY9       -0.1210
      2  CA        12.1080   21.0390   87.6180 C.3     9  GLY9        0.1956
      3  C         11.4570   20.9180   86.2550 C.2     9  GLY9        0.2612
      4  O         12.1230   20.9980   85.2200 O.2     9  GLY9       -0.2717
      5  N         10.1450   20.7240   86.2490 N.am   10  LEU10      -0.1965
      6  CA         9.4340   20.4290   85.0170 C.3    10  LEU10       0.1728
      7  C          8.3730   21.4810   84.6980 C.2    10  LEU10       0.2616
      8  O          7.2810   21.1620   84.2270 O.2    10  LEU10      -0.2715
      9  CB         8.8310   19.0300   85.0980 C.3    10  LEU10       0.0311
     10  CG         9.8630   17.9060   85.2320 C.3    10  LEU10       0.0022
     11  CD1        9.1960   16.5720   85.5740 C.3    10  LEU10       0.0001
     12  CD2       10.6760   17.8020   83.9520 C.3    10  LEU10       0.0001
     13  N          8.7030   22.7380   84.9730 N.am   11  ALA11      -0.1963
     14  CA         7.9210   23.8650   84.4730 C.3    11  ALA11       0.1728
     15  C          8.4360   24.2550   83.0940 C.2    11  ALA11       0.2616
     16  O          9.1300   23.4790   82.4430 O.2    11  ALA11      -0.2715
     17  CB         8.0210   25.0530   85.4190 C.3    11  ALA11       0.0334
     18  N          8.1160   25.4670   82.6590 N.am   12  VAL12      -0.1963
     19  CA         8.5060   25.9280   81.3270 C.3    12  VAL12       0.1727
     20  C         10.0140   25.7870   81.0360 C.2    12  VAL12       0.2616
     21  O         10.4050   25.2000   80.0440 O.2    12  VAL12      -0.2715
     22  CB         8.0080   27.3740   81.0660 C.3    12  VAL12       0.0290
     23  CG1        8.5480   28.3340   82.1150 C.3    12  VAL12       0.0023
     24  CG2        8.3730   27.8320   79.6740 C.3    12  VAL12       0.0023
     25  N         10.8650   26.2950   81.9170 N.am   13  MET13      -0.1963
     26  CA        12.3080   26.2630   81.6630 C.3    13  MET13       0.1736
     27  C         12.8760   24.8540   81.6110 C.2    13  MET13       0.2617
     28  O         13.6190   24.4990   80.6880 O.2    13  MET13      -0.2715
     29  CB        13.0520   27.0840   82.7070 C.3    13  MET13       0.0427
     30  CG        12.7670   28.5590   82.6190 C.3    13  MET13       0.0599
     31  SD        13.0380   29.1920   80.9610 S.3    13  MET13      -0.1393
     32  CE        14.8220   29.2120   80.8520 C.3    13  MET13       0.0692
     33  N         12.5110   24.0510   82.6010 N.am   14  GLY14      -0.1955
     34  CA        13.0340   22.7050   82.7210 C.3    14  GLY14       0.1869
     35  C         12.6530   21.8030   81.5590 C.2    14  GLY14       0.2309
     36  O         13.5160   21.1730   80.9530 O.2    14  GLY14      -0.2863
     37  N         11.2830   15.7820   89.2890 N.3    32  ASN32      -0.1225
     38  CA        10.5570   16.9260   89.8090 C.3    32  ASN32       0.1785
     39  C         10.0130   16.6190   91.1890 C.2    32  ASN32       0.2597
     40  O          9.7330   15.4600   91.4950 O.2    32  ASN32      -0.2718
     41  CB         9.4150   17.3050   88.8770 C.3    32  ASN32       0.1169
     42  CG         8.8240   18.6480   89.2200 C.2    32  ASN32       0.2627
     43  OD1        9.4640   19.6760   89.0340 O.2    32  ASN32      -0.2716
     44  ND2        7.6040   18.6470   89.7500 N.am   32  ASN32      -0.0877
     45  N          9.8670   17.6510   92.0210 N.am   33  ARG33      -0.1966
     46  CA         9.3180   17.4690   93.3660 C.3    33  ARG33       0.1729
     47  C          8.0080   16.6970   93.3220 C.2    33  ARG33       0.2616
     48  O          7.8680   15.6590   93.9590 O.2    33  ARG33      -0.2715
     49  CB         9.0940   18.8060   94.0640 C.3    33  ARG33       0.0348
     50  CG         8.3630   18.6400   95.3950 C.3    33  ARG33       0.0492
     51  CD         8.0980   19.9760   96.0740 C.3    33  ARG33       0.2205
     52  NE         7.3700   20.8630   95.1850 N.pl3  33  ARG33      -0.0865
     53  CZ         6.7830   21.9800   95.5790 C.cat  33  ARG33       0.5346
     54  NH1        6.8420   22.3360   96.8510 N.pl3  33  ARG33       0.1354
     55  NH2        6.1420   22.7340   94.7040 N.pl3  33  ARG33       0.1354
     56  N          7.0560   17.2120   92.5530 N.am   34  THR34      -0.1951
     57  CA         5.8110   16.5110   92.2900 C.3    34  THR34       0.1897
     58  C          6.0710   15.4490   91.2310 C.2    34  THR34       0.2313
     59  O          6.1110   15.7290   90.0240 O.2    34  THR34      -0.2863
     60  CB         4.7430   17.4810   91.8210 C.3    34  THR34       0.1794
     61  OG1        4.6920   18.5930   92.7300 O.3    34  THR34      -0.2208
     62  CG2        3.4040   16.7980   91.8140 C.3    34  THR34       0.0378
     63  N          4.4300   14.6020   87.7680 N.3    37  LYS37      -0.1245
     64  CA         4.7620   15.4210   86.6100 C.3    37  LYS37       0.1561
     65  C          5.8540   14.8090   85.7230 C.2    37  LYS37       0.2260
     66  O          5.9250   15.0950   84.5250 O.2    37  LYS37      -0.2867
     67  CB         5.1510   16.8300   87.0630 C.3    37  LYS37       0.0271
     68  CG         3.9790   17.5970   87.6330 C.3    37  LYS37       0.0035
     69  CD         4.2710   19.0720   87.7520 C.3    37  LYS37       0.0206
     70  CE         3.1540   19.7680   88.5070 C.3    37  LYS37       0.1093
     71  NZ         3.5750   21.0860   89.0540 N.3    37  LYS37      -0.1314
     72  N         16.4300   23.6590   87.8170 N.3    73  LEU73      -0.1231
     73  CA        15.6680   24.7680   87.2440 C.3    73  LEU73       0.1693
     74  C         14.3350   24.8820   87.9590 C.2    73  LEU73       0.2592
     75  O         13.2790   24.6550   87.3660 O.2    73  LEU73      -0.2718
     76  CB        15.4410   24.5630   85.7400 C.3    73  LEU73       0.0284
     77  CG        16.5060   25.0730   84.7620 C.3    73  LEU73       0.0019
     78  CD1       16.1390   24.6550   83.3600 C.3    73  LEU73       0.0001
     79  CD2       16.6380   26.5870   84.8550 C.3    73  LEU73       0.0001
     80  N         14.3980   25.2030   89.2450 N.am   74  VAL74      -0.1966
     81  CA        13.1990   25.3550   90.0520 C.3    74  VAL74       0.1727
     82  C         13.1170   26.7740   90.5950 C.2    74  VAL74       0.2616
     83  O         14.0840   27.5350   90.5090 O.2    74  VAL74      -0.2715
     84  CB        13.1530   24.3000   91.1930 C.3    74  VAL74       0.0290
     85  CG1       13.3030   22.9170   90.5990 C.3    74  VAL74       0.0023
     86  CG2       14.2390   24.5450   92.2200 C.3    74  VAL74       0.0023
     87  N         11.9530   27.1270   91.1270 N.am   75  LYS75      -0.1963
     88  CA        11.7370   28.4230   91.7690 C.3    75  LYS75       0.1728
     89  C         12.8740   28.7390   92.7420 C.2    75  LYS75       0.2616
     90  O         13.1800   27.9290   93.6250 O.2    75  LYS75      -0.2715
     91  CB        10.4070   28.3820   92.5250 C.3    75  LYS75       0.0311
     92  CG         9.9320   29.6940   93.1080 C.3    75  LYS75       0.0038
     93  CD         8.5280   29.4790   93.6520 C.3    75  LYS75       0.0206
     94  CE         7.9960   30.7170   94.3360 C.3    75  LYS75       0.1093
     95  NZ         6.7080   30.3850   95.0140 N.3    75  LYS75      -0.1314
     96  N         13.4950   29.9070   92.5670 N.am   76  ALA76      -0.1977
     97  CA        14.6250   30.3460   93.3890 C.3    76  ALA76       0.1597
     98  C         14.2650   30.4430   94.8700 C.2    76  ALA76       0.2287
     99  O         13.1140   30.7230   95.2300 O.2    76  ALA76      -0.2864
    100  CB        15.1480   31.6920   92.8980 C.3    76  ALA76       0.0319
    101  N         14.4270   28.7520   98.8640 N.3    78  GLN78      -0.1231
    102  CA        14.6320   27.6150   99.7580 C.3    78  GLN78       0.1698
    103  C         14.6460   26.3050   98.9850 C.2    78  GLN78       0.2592
    104  O         15.3950   25.3800   99.3190 O.2    78  GLN78      -0.2718
    105  CB        13.5290   27.5670  100.8160 C.3    78  GLN78       0.0381
    106  CG        13.7570   26.5170  101.8930 C.3    78  GLN78       0.0905
    107  CD        15.0520   26.7520  102.6550 C.2    78  GLN78       0.2608
    108  OE1       15.3850   27.8930  102.9960 O.2    78  GLN78      -0.2717
    109  NE2       15.7900   25.6750  102.9260 N.am   78  GLN78      -0.0878
    110  N         13.8050   26.2320   97.9570 N.am   79  ALA79      -0.1980
    111  CA        13.7070   25.0370   97.1170 C.3    79  ALA79       0.1597
    112  C         15.0810   24.5480   96.6560 C.2    79  ALA79       0.2287
    113  O         15.3490   23.3490   96.6280 O.2    79  ALA79      -0.2864
    114  CB        12.7730   25.2790   95.8960 C.3    79  ALA79       0.0319
    115  N         16.8660   23.1100   99.6280 N.3    82  ASP82      -0.1225
    116  CA        16.1980   21.8340   99.9080 C.3    82  ASP82       0.1805
    117  C         16.8010   20.6840   99.0810 C.2    82  ASP82       0.2597
    118  O         17.1500   19.6260   99.6090 O.2    82  ASP82      -0.2718
    119  CB        14.6910   21.9550   99.6080 C.3    82  ASP82       0.1424
    120  CG        13.9420   22.8340  100.6220 C.2    82  ASP82       0.3668
    121  OD1       14.4860   23.1140  101.7160 O.co2  82  ASP82      -0.2456
    122  OD2       12.7900   23.2350  100.3230 O.co2  82  ASP82      -0.2456
    123  N         16.9230   20.8980   97.7760 N.am   83  PHE83      -0.1976
    124  CA        17.4640   19.8680   96.9030 C.3    83  PHE83       0.1639
    125  C         18.9500   19.6150   97.1640 C.2    83  PHE83       0.2290
    126  O         19.4010   18.4710   97.1450 O.2    83  PHE83      -0.2864
    127  CB        17.2260   20.2200   95.4400 C.3    83  PHE83       0.0560
    128  CG        15.8480   19.8600   94.9350 C.ar   83  PHE83      -0.0200
    129  CD1       15.4310   18.5320   94.8940 C.ar   83  PHE83      -0.0042
    130  CD2       14.9810   20.8470   94.4740 C.ar   83  PHE83      -0.0042
    131  CE1       14.1630   18.1910   94.4030 C.ar   83  PHE83      -0.0003
    132  CE2       13.7210   20.5260   93.9920 C.ar   83  PHE83      -0.0003
    133  CZ        13.3060   19.1940   93.9560 C.ar   83  PHE83      -0.0000
    134  N         19.4030   17.3420  100.1330 N.3    86  LYS86      -0.1245
    135  CA        19.0460   15.9570   99.8540 C.3    86  LYS86       0.1561
    136  C         20.0350   15.2690   98.9110 C.2    86  LYS86       0.2260
    137  O         20.2400   14.0600   98.9910 O.2    86  LYS86      -0.2867
    138  CB        17.6350   15.8880   99.2780 C.3    86  LYS86       0.0271
    139  CG        16.5300   16.1180  100.2870 C.3    86  LYS86       0.0035
    140  CD        15.1700   16.0240   99.6320 C.3    86  LYS86       0.0206
    141  CE        14.7440   17.3450   99.0310 C.3    86  LYS86       0.1093
    142  NZ        13.5150   17.1490   98.2200 N.3    86  LYS86      -0.1314
    143  N         20.4540   26.6670   87.6970 N.3   100  GLY100     -0.1210
    144  CA        20.2000   27.4870   86.5250 C.3   100  GLY100      0.1956
    145  C         19.0920   28.4940   86.7500 C.2   100  GLY100      0.2612
    146  O         18.7950   29.2970   85.8700 O.2   100  GLY100     -0.2717
    147  N         18.4790   28.4580   87.9310 N.am  101  GLY101     -0.1942
    148  CA        17.3770   29.3540   88.2400 C.3   101  GLY101      0.2014
    149  C         17.8420   30.7730   88.5130 C.2   101  GLY101      0.2638
    150  O         19.0430   31.0660   88.5170 O.2   101  GLY101     -0.2714
    151  N         16.8870   31.6650   88.7430 N.am  102  ASN102     -0.1972
    152  CA        17.2210   33.0490   89.0540 C.3   102  ASN102      0.1688
    153  C         17.5070   33.2450   90.5390 C.2   102  ASN102      0.2292
    154  O         16.7090   33.8610   91.2520 O.2   102  ASN102     -0.2864
    155  CB        16.0930   33.9840   88.6240 C.3   102  ASN102      0.1181
    156  CG        16.1190   34.2960   87.1410 C.2   102  ASN102      0.2629
    157  OD1       17.0880   33.9960   86.4360 O.2   102  ASN102     -0.2716
    158  ND2       15.0470   34.9110   86.6590 N.am  102  ASN102     -0.0877
    159  N         20.3820   31.7390   82.9660 N.3   127  VAL127     -0.1231
    160  CA        19.8200   31.2300   81.7340 C.3   127  VAL127      0.1692
    161  C         18.8960   32.2950   81.1660 C.2   127  VAL127      0.2592
    162  O         17.9830   32.7550   81.8500 O.2   127  VAL127     -0.2718
    163  CB        19.0610   29.9170   81.9960 C.3   127  VAL127      0.0266
    164  CG1       18.4230   29.3830   80.7230 C.3   127  VAL127      0.0020
    165  CG2       20.0180   28.8830   82.5800 C.3   127  VAL127      0.0020
    166  N         19.1430   32.7070   79.9230 N.am  128  SER128     -0.1952
    167  CA        18.2950   33.7100   79.2790 C.3   128  SER128      0.1924
    168  C         17.5990   33.1570   78.0370 C.2   128  SER128      0.2314
    169  O         18.0370   32.1660   77.4720 O.2   128  SER128     -0.2863
    170  CB        19.1170   34.9260   78.8850 C.3   128  SER128      0.2116
    171  OG        18.2560   35.9820   78.5070 O.3   128  SER128     -0.2180
    172  N         14.0270   32.7890   77.8660 N.3   130  GLY130     -0.1210
    173  CA        12.7040   32.2710   78.1880 C.3   130  GLY130      0.1956
    174  C         12.4120   30.9170   77.5640 C.2   130  GLY130      0.2611
    175  O         13.3260   30.1140   77.3530 O.2   130  GLY130     -0.2717
    176  N         11.1390   30.6600   77.2710 N.am  131  GLU131     -0.1979
    177  CA        10.7120   29.3660   76.7360 C.3   131  GLU131      0.1602
    178  C         11.4540   29.0140   75.4560 C.2   131  GLU131      0.2287
    179  O         12.0430   27.9360   75.3430 O.2   131  GLU131     -0.2864
    180  CB         9.1960   29.3500   76.4860 C.3   131  GLU131      0.0415
    181  CG         8.7110   28.1290   75.7010 C.3   131  GLU131      0.1163
    182  CD         7.1940   28.0680   75.5390 C.2   131  GLU131      0.3649
    183  OE1        6.5560   29.1160   75.2730 O.co2 131  GLU131     -0.2457
    184  OE2        6.6410   26.9530   75.6670 O.co2 131  GLU131     -0.2457
    185  N         23.7450   37.6840   85.6170 N.3   183  LYS183     -0.1245
    186  CA        22.3630   37.4270   85.2230 C.3   183  LYS183      0.1561
    187  C         21.4090   38.4220   85.8670 C.2   183  LYS183      0.2260
    188  O         20.4190   38.8180   85.2420 O.2   183  LYS183     -0.2867
    189  CB        21.9360   35.9910   85.5020 C.3   183  LYS183      0.0271
    190  CG        20.4390   35.7810   85.4230 C.3   183  LYS183      0.0035
    191  CD        19.8440   35.9160   84.0100 C.3   183  LYS183      0.0206
    192  CE        18.5590   35.0630   83.9430 C.3   183  LYS183      0.1093
    193  NZ        17.4540   35.6130   83.1460 N.3   183  LYS183     -0.1314
    194  N          9.5620   38.9250   89.8830 N.3   260  LYS260     -0.1245
    195  CA         9.9390   37.7440   90.6350 C.3   260  LYS260      0.1561
    196  C         11.2660   37.9130   91.3660 C.2   260  LYS260      0.2260
    197  O         11.8620   36.9320   91.8060 O.2   260  LYS260     -0.2867
    198  CB         9.9320   36.5270   89.7160 C.3   260  LYS260      0.0271
    199  CG         8.5520   36.2190   89.1400 C.3   260  LYS260      0.0035
    200  CD         8.5410   34.8690   88.4540 C.3   260  LYS260      0.0206
    201  CE         7.1420   34.4740   88.0090 C.3   260  LYS260      0.1093
    202  NZ         7.1800   33.2360   87.1960 N.3   260  LYS260     -0.1314
@<TRIPOS>BOND
     1   183   182   ar
     2   179   178    2
     3   178   177    1
     4   182   184   ar
     5   182   181    1
     6   181   180    1
     7   180   177    1
     8   177   176    1
     9   176   174   am
    10   175   174    2
    11   169   168    2
    12   174   173    1
    13   172   173    1
    14   168   167    1
    15   171   170    1
    16   170   167    1
    17   167   166    1
    18    24    22    1
    19   166   161   am
    20    21    20    2
    21    28    27    2
    22   164   163    1
    23    32    31    1
    24    36    35    2
    25    31    30    1
    26    20    19    1
    27    20    25   am
    28    22    19    1
    29    22    23    1
    30   161   160    1
    31   161   162    2
    32    19    18    1
    33    35    34    1
    34    27    26    1
    35    27    33   am
    36    26    25    1
    37    26    29    1
    38   160   163    1
    39   160   159    1
    40   163   165    1
    41    16    15    2
    42    33    34    1
    43    30    29    1
    44    18    15   am
    45    15    14    1
    46   193   192    1
    47    78    77    1
    48   192   191    1
    49    12    10    1
    50   191   190    1
    51     8     7    2
    52    14    13    1
    53    14    17    1
    54    66    65    2
    55     7    13   am
    56     7     6    1
    57    77    79    1
    58    77    76    1
    59     6     9    1
    60     6     5    1
    61     9    10    1
    62     4     3    2
    63   186   189    1
    64   186   185    1
    65   186   187    1
    66    10    11    1
    67   188   187    2
    68   190   189    1
    69    65    64    1
    70    76    73    1
    71   146   145    2
    72     5     3   am
    73     3     2    1
    74   157   156    2
    75   144   145    1
    76   144   143    1
    77    64    67    1
    78    64    63    1
    79   158   156   am
    80   145   147   am
    81    67    68    1
    82   156   155    1
    83   202   201    1
    84    73    72    1
    85    73    74    1
    86    75    74    2
    87     2     1    1
    88    68    69    1
    89    69    70    1
    90   147   148    1
    91    74    80   am
    92   201   200    1
    93   148   149    1
    94   200   199    1
    95    70    71    1
    96   149   150    2
    97   149   151   am
    98   155   152    1
    99   151   152    1
   100    41    42    1
   101    41    38    1
   102    43    42    2
   103   152   153    1
   104   199   198    1
   105    42    44   am
   106    80    81    1
   107    37    38    1
   108   198   195    1
   109    38    39    1
   110   194   195    1
   111    59    58    2
   112    81    82    1
   113    81    84    1
   114    83    82    2
   115   153   154    2
   116    82    87   am
   117    85    84    1
   118   195   196    1
   119    87    88    1
   120    39    40    2
   121    39    45   am
   122    84    86    1
   123    58    57    1
   124   196   197    2
   125    88    91    1
   126    88    89    1
   127    62    60    1
   128    60    57    1
   129    60    61    1
   130    45    46    1
   131    57    56    1
   132    91    92    1
   133    56    47   am
   134    96    89   am
   135    96    97    1
   136    89    90    2
   137   100    97    1
   138    92    93    1
   139    47    46    1
   140    47    48    2
   141    46    49    1
   142    97    98    1
   143    93    94    1
   144   133   132   ar
   145   133   131   ar
   146   132   130   ar
   147    49    50    1
   148    94    95    1
   149   131   129   ar
   150   130   128   ar
   151    55    53    1
   152    98    99    2
   153   129   128   ar
   154   128   127    1
   155    52    53    2
   156    52    51    1
   157    50    51    1
   158   127   124    1
   159    53    54    1
   160   114   111    1
   161   113   112    2
   162   112   111    1
   163   124   125    1
   164   124   123    1
   165   111   110    1
   166   126   125    2
   167   123   117   am
   168   110   103   am
   169   142   141    1
   170   101   102    1
   171   136   137    2
   172   136   135    1
   173   103   104    2
   174   103   102    1
   175   141   140    1
   176   117   118    2
   177   117   116    1
   178   138   135    1
   179   138   139    1
   180   119   116    1
   181   119   120    1
   182   115   116    1
   183   140   139    1
   184   102   105    1
   185   135   134    1
   186   122   120   ar
   187   120   121   ar
   188   105   106    1
   189   106   107    1
   190   107   109   am
   191   107   108    2
