@<TRIPOS>MOLECULE
tmp/2jkyA00.pdb
 187 184 0 0 0
SMALL
GASTEIGER

@<TRIPOS>ATOM
      1  N         18.1550   29.7070    5.4930 N.3    63  SER63      -0.1217
      2  CA        19.5130   29.1770    5.5340 C.3    63  SER63       0.1889
      3  C         20.3520   29.8160    6.6330 C.2    63  SER63       0.2288
      4  O         20.1790   30.9950    6.9630 O.2    63  SER63      -0.2866
      5  CB        20.1980   29.3660    4.1810 C.3    63  SER63       0.2089
      6  OG        19.6440   28.4810    3.2270 O.3    63  SER63      -0.2183
      7  N         23.8520   29.2540    6.5290 N.3    65  TYR65      -0.1227
      8  CA        25.1370   29.4460    5.8650 C.3    65  TYR65       0.1736
      9  C         24.9670   29.9050    4.4170 C.2    65  TYR65       0.2595
     10  O         23.8450   30.0390    3.9270 O.2    65  TYR65      -0.2718
     11  CB        25.9440   28.1400    5.9020 C.3    65  TYR65       0.0548
     12  CG        26.0360   27.5250    7.2780 C.ar   65  TYR65      -0.0200
     13  CD1       26.8680   28.0800    8.2550 C.ar   65  TYR65      -0.0009
     14  CD2       25.2840   26.3950    7.6100 C.ar   65  TYR65      -0.0009
     15  CE1       26.9520   27.5270    9.5250 C.ar   65  TYR65       0.0417
     16  CE2       25.3620   25.8300    8.8790 C.ar   65  TYR65       0.0417
     17  CZ        26.1980   26.4060    9.8320 C.ar   65  TYR65       0.1957
     18  OH        26.2840   25.8620   11.0890 O.3    65  TYR65      -0.2866
     19  N         26.0910   30.1430    3.7420 N.am   66  GLU66      -0.1965
     20  CA        26.1080   30.4420    2.3070 C.3    66  GLU66       0.1733
     21  C         27.4620   30.1150    1.6600 C.2    66  GLU66       0.2616
     22  O         28.4790   29.9710    2.3550 O.2    66  GLU66      -0.2715
     23  CB        25.7180   31.9010    2.0470 C.3    66  GLU66       0.0429
     24  CG        26.4590   32.9300    2.8960 C.3    66  GLU66       0.1163
     25  CD        25.7420   34.2700    2.9450 C.2    66  GLU66       0.3649
     26  OE1       24.9150   34.5460    2.0470 O.co2  66  GLU66      -0.2457
     27  OE2       26.0060   35.0470    3.8850 O.co2  66  GLU66      -0.2457
     28  N         27.4610   29.9980    0.3310 N.am   67  ASP67      -0.1971
     29  CA        28.6730   29.7140   -0.4470 C.3    67  ASP67       0.1709
     30  C         28.4520   30.0520   -1.9220 C.2    67  ASP67       0.2293
     31  O         27.6620   29.3950   -2.6070 O.2    67  ASP67      -0.2864
     32  CB        29.0860   28.2430   -0.2890 C.3    67  ASP67       0.1436
     33  CG        30.4040   27.9280   -0.9620 C.2    67  ASP67       0.3671
     34  OD1       31.4270   28.5460   -0.5940 O.co2  67  ASP67      -0.2456
     35  OD2       30.4190   27.0500   -1.8520 O.co2  67  ASP67      -0.2456
     36  N         34.2630   25.6220    2.4960 N.3    77  VAL77      -0.1231
     37  CA        33.9020   26.8640    3.1850 C.3    77  VAL77       0.1692
     38  C         32.4240   26.9330    3.5770 C.2    77  VAL77       0.2591
     39  O         31.5380   26.8870    2.7200 O.2    77  VAL77      -0.2718
     40  CB        34.2980   28.1150    2.3510 C.3    77  VAL77       0.0266
     41  CG1       33.6810   29.3890    2.9290 C.3    77  VAL77       0.0020
     42  CG2       35.8090   28.2460    2.2750 C.3    77  VAL77       0.0020
     43  N         32.1780   27.0370    4.8810 N.am   78  LYS78      -0.1980
     44  CA        30.8420   27.2840    5.4150 C.3    78  LYS78       0.1596
     45  C         30.8820   28.5230    6.2860 C.2    78  LYS78       0.2287
     46  O         31.3390   28.4720    7.4300 O.2    78  LYS78      -0.2864
     47  CB        30.3350   26.1040    6.2470 C.3    78  LYS78       0.0298
     48  CG        29.7800   24.9440    5.4470 C.3    78  LYS78       0.0038
     49  CD        28.5450   24.3520    6.1120 C.3    78  LYS78       0.0206
     50  CE        28.8420   23.7210    7.4540 C.3    78  LYS78       0.1093
     51  NZ        27.6390   23.0540    8.0050 N.3    78  LYS78      -0.1314
     52  N         16.5390   21.1580    0.2230 N.3   103  ASP103     -0.1225
     53  CA        17.8810   21.7430    0.2310 C.3   103  ASP103      0.1805
     54  C         18.8040   20.7380   -0.4600 C.2   103  ASP103      0.2598
     55  O         18.3640   19.6510   -0.8200 O.2   103  ASP103     -0.2718
     56  CB        18.3440   22.0400    1.6690 C.3   103  ASP103      0.1424
     57  CG        19.2310   23.2840    1.7740 C.2   103  ASP103      0.3668
     58  OD1       19.5050   23.9560    0.7570 O.co2 103  ASP103     -0.2456
     59  OD2       19.6600   23.6010    2.9020 O.co2 103  ASP103     -0.2456
     60  N         20.0700   21.0960   -0.6630 N.am  104  GLU104     -0.1965
     61  CA        20.9890   20.2020   -1.3700 C.3   104  GLU104      0.1733
     62  C         21.6510   19.1670   -0.4450 C.2   104  GLU104      0.2616
     63  O         21.7130   17.9840   -0.7790 O.2   104  GLU104     -0.2715
     64  CB        22.0100   20.9940   -2.2180 C.3   104  GLU104      0.0429
     65  CG        23.2470   21.5450   -1.5020 C.3   104  GLU104      0.1163
     66  CD        22.9370   22.6500   -0.5100 C.2   104  GLU104      0.3649
     67  OE1       22.3290   22.3560    0.5410 O.co2 104  GLU104     -0.2457
     68  OE2       23.3210   23.8100   -0.7710 O.co2 104  GLU104     -0.2457
     69  N         22.1130   19.6060    0.7250 N.am  105  VAL105     -0.1963
     70  CA        22.8500   18.7170    1.6230 C.3   105  VAL105      0.1727
     71  C         22.5030   18.8860    3.1040 C.2   105  VAL105      0.2616
     72  O         22.3990   20.0030    3.6050 O.2   105  VAL105     -0.2715
     73  CB        24.4070   18.7950    1.3860 C.3   105  VAL105      0.0290
     74  CG1       24.9980   20.1360    1.8550 C.3   105  VAL105      0.0023
     75  CG2       25.1260   17.6160    2.0390 C.3   105  VAL105      0.0023
     76  N         22.3050   17.7500    3.7730 N.am  106  ASP106     -0.1957
     77  CA        22.2190   17.6740    5.2300 C.3   106  ASP106      0.1840
     78  C         23.6320   17.3640    5.7500 C.2   106  ASP106      0.2622
     79  O         24.1340   16.2460    5.5740 O.2   106  ASP106     -0.2715
     80  CB        21.2170   16.5760    5.6310 C.3   106  ASP106      0.1450
     81  CG        21.0440   16.4400    7.1420 C.2   106  ASP106      0.3671
     82  OD1       22.0160   16.6530    7.9070 O.co2 106  ASP106     -0.2456
     83  OD2       19.9230   16.0980    7.5650 O.co2 106  ASP106     -0.2456
     84  N         24.2660   18.3640    6.3670 N.am  107  ASP107     -0.1957
     85  CA        25.6540   18.2690    6.8230 C.3   107  ASP107      0.1840
     86  C         25.7140   18.0260    8.3360 C.2   107  ASP107      0.2623
     87  O         25.9350   16.8970    8.7820 O.2   107  ASP107     -0.2715
     88  CB        26.4330   19.5350    6.4160 C.3   107  ASP107      0.1450
     89  CG        27.9030   19.4970    6.8210 C.2   107  ASP107      0.3671
     90  OD1       28.4860   18.4030    6.9260 O.co2 107  ASP107     -0.2456
     91  OD2       28.4910   20.5770    7.0310 O.co2 107  ASP107     -0.2456
     92  N         25.5130   19.0860    9.1160 N.am  108  THR108     -0.1937
     93  CA        25.4000   18.9790   10.5710 C.3   108  THR108      0.2028
     94  C         23.9340   18.9970   10.9970 C.2   108  THR108      0.2642
     95  O         23.6200   18.7520   12.1580 O.2   108  THR108     -0.2714
     96  CB        26.1470   20.1180   11.3010 C.3   108  THR108      0.1808
     97  OG1       25.5760   21.3780   10.9260 O.3   108  THR108     -0.2208
     98  CG2       27.6430   20.0980   10.9710 C.3   108  THR108      0.0379
     99  N         23.0520   19.3080   10.0480 N.am  109  ARG109     -0.1963
    100  CA        21.5980   19.2960   10.2600 C.3   109  ARG109      0.1729
    101  C         21.0620   20.5200   11.0300 C.2   109  ARG109      0.2617
    102  O         19.8690   20.5800   11.3400 O.2   109  ARG109     -0.2715
    103  CB        21.1590   17.9810   10.9260 C.3   109  ARG109      0.0348
    104  CG        19.6650   17.6810   10.8840 C.3   109  ARG109      0.0492
    105  CD        19.4200   16.2360   11.2730 C.3   109  ARG109      0.2205
    106  NE        19.7540   15.3450   10.1650 N.pl3 109  ARG109     -0.0865
    107  CZ        19.9440   14.0360   10.2740 C.cat 109  ARG109      0.5346
    108  NH1       19.8330   13.4350   11.4490 N.pl3 109  ARG109      0.1354
    109  NH2       20.2530   13.3330    9.1990 N.pl3 109  ARG109      0.1354
    110  N         21.9220   21.4950   11.3220 N.am  110  THR110     -0.1937
    111  CA        21.4490   22.7220   11.9780 C.3   110  THR110      0.2028
    112  C         20.4550   23.4830   11.0930 C.2   110  THR110      0.2643
    113  O         19.4490   23.9800   11.5900 O.2   110  THR110     -0.2714
    114  CB        22.5920   23.6680   12.4650 C.3   110  THR110      0.1808
    115  OG1       23.5130   23.9300   11.4000 O.3   110  THR110     -0.2208
    116  CG2       23.3390   23.0730   13.6580 C.3   110  THR110      0.0379
    117  N         20.7240   23.5390    9.7870 N.am  111  THR111     -0.1936
    118  CA        19.8800   24.2850    8.8430 C.3   111  THR111      0.2028
    119  C         18.4610   23.7090    8.7280 C.2   111  THR111      0.2642
    120  O         17.4820   24.4520    8.7960 O.2   111  THR111     -0.2714
    121  CB        20.5380   24.3980    7.4390 C.3   111  THR111      0.1808
    122  OG1       21.8080   25.0550    7.5490 O.3   111  THR111     -0.2208
    123  CG2       19.6520   25.1850    6.4690 C.3   111  THR111      0.0379
    124  N         18.3550   22.3910    8.5610 N.am  112  LEU112     -0.1977
    125  CA        17.0560   21.7360    8.4210 C.3   112  LEU112      0.1596
    126  C         16.2410   21.7780    9.7110 C.2   112  LEU112      0.2287
    127  O         15.0270   21.9390    9.6670 O.2   112  LEU112     -0.2864
    128  CB        17.2110   20.2910    7.9250 C.3   112  LEU112      0.0297
    129  CG        17.5910   20.1010    6.4570 C.3   112  LEU112      0.0022
    130  CD1       18.0600   18.6720    6.2260 C.3   112  LEU112      0.0001
    131  CD2       16.4290   20.4700    5.5050 C.3   112  LEU112      0.0001
    132  N         24.9890   13.4450    4.8830 N.3   152  LYS152     -0.1245
    133  CA        26.3470   13.0850    5.2860 C.3   152  LYS152      0.1561
    134  C         26.4080   12.1480    6.4890 C.2   152  LYS152      0.2260
    135  O         25.7870   12.4020    7.5240 O.2   152  LYS152     -0.2867
    136  CB        27.1840   14.3410    5.5590 C.3   152  LYS152      0.0271
    137  CG        27.5700   15.1210    4.3160 C.3   152  LYS152      0.0035
    138  CD        28.6000   16.1980    4.6340 C.3   152  LYS152      0.0206
    139  CE        28.6500   17.2330    3.5310 C.3   152  LYS152      0.1093
    140  NZ        29.7880   18.1680    3.6670 N.3   152  LYS152     -0.1314
    141  N         33.4810   17.1750    1.0300 N.3   181  TRP181     -0.1227
    142  CA        32.9150   18.4080    0.5100 C.3   181  TRP181      0.1737
    143  C         32.3760   18.2380   -0.9020 C.2   181  TRP181      0.2595
    144  O         33.1080   17.8810   -1.8210 O.2   181  TRP181     -0.2718
    145  CB        33.9170   19.5610    0.5570 C.3   181  TRP181      0.0564
    146  CG        33.2530   20.8750    0.2800 C.ar  181  TRP181      0.0003
    147  CD1       33.1980   21.5330   -0.9150 C.ar  181  TRP181      0.0946
    148  CD2       32.5220   21.6740    1.2140 C.ar  181  TRP181      0.0152
    149  NE1       32.4870   22.7020   -0.7800 N.ar  181  TRP181     -0.2442
    150  CE2       32.0680   22.8170    0.5190 C.ar  181  TRP181      0.0810
    151  CE3       32.2180   21.5430    2.5750 C.ar  181  TRP181      0.0012
    152  CZ2       31.3220   23.8210    1.1380 C.ar  181  TRP181      0.0191
    153  CZ3       31.4780   22.5440    3.1900 C.ar  181  TRP181      0.0001
    154  CH2       31.0350   23.6650    2.4680 C.ar  181  TRP181      0.0015
    155  N         31.0910   18.5210   -1.0680 N.am  182  TYR182     -0.1976
    156  CA        30.4470   18.3840   -2.3660 C.3   182  TYR182      0.1639
    157  C         30.3640   19.7070   -3.1020 C.2   182  TYR182      0.2290
    158  O         29.8800   20.7090   -2.5680 O.2   182  TYR182     -0.2864
    159  CB        29.0820   17.6910   -2.2270 C.3   182  TYR182      0.0560
    160  CG        29.2650   16.2660   -1.7780 C.ar  182  TYR182     -0.0198
    161  CD1       29.4370   15.2400   -2.7070 C.ar  182  TYR182     -0.0009
    162  CD2       29.3370   15.9500   -0.4220 C.ar  182  TYR182     -0.0009
    163  CE1       29.6460   13.9340   -2.2950 C.ar  182  TYR182      0.0417
    164  CE2       29.5490   14.6550   -0.0020 C.ar  182  TYR182      0.0417
    165  CZ        29.7050   13.6530   -0.9420 C.ar  182  TYR182      0.1957
    166  OH        29.9140   12.3680   -0.5190 O.3   182  TYR182     -0.2866
    167  N         28.6020   21.5290   -5.8790 N.3   184  TYR184     -0.1241
    168  CA        27.3520   21.4620   -6.6400 C.3   184  TYR184      0.1605
    169  C         27.4420   22.3100   -7.9080 C.2   184  TYR184      0.2264
    170  O         28.0730   23.3590   -7.8970 O.2   184  TYR184     -0.2867
    171  CB        26.1580   21.8480   -5.7500 C.3   184  TYR184      0.0534
    172  CG        25.9990   20.8800   -4.6020 C.ar  184  TYR184     -0.0201
    173  CD1       25.4270   19.6200   -4.8080 C.ar  184  TYR184     -0.0009
    174  CD2       26.4730   21.1900   -3.3290 C.ar  184  TYR184     -0.0009
    175  CE1       25.3030   18.7100   -3.7700 C.ar  184  TYR184      0.0417
    176  CE2       26.3580   20.2790   -2.2780 C.ar  184  TYR184      0.0417
    177  CZ        25.7680   19.0410   -2.5100 C.ar  184  TYR184      0.1957
    178  OH        25.6480   18.1240   -1.4950 O.3   184  TYR184     -0.2866
    179  N         27.0650   26.0630   -8.3360 N.3   187  GLU187     -0.1245
    180  CA        28.0870   26.8510   -7.6410 C.3   187  GLU187      0.1567
    181  C         29.3400   27.0520   -8.4920 C.2   187  GLU187      0.2260
    182  O         30.2170   27.8370   -8.1320 O.2   187  GLU187     -0.2867
    183  CB        28.4770   26.1810   -6.3200 C.3   187  GLU187      0.0388
    184  CG        27.3140   25.9300   -5.3630 C.3   187  GLU187      0.1160
    185  CD        27.6670   24.9650   -4.2370 C.2   187  GLU187      0.3649
    186  OE1       28.6820   24.2380   -4.3380 O.co2 187  GLU187     -0.2457
    187  OE2       26.9160   24.9350   -3.2400 O.co2 187  GLU187     -0.2457
@<TRIPOS>BOND
     1   181   182    2
     2   181   180    1
     3   179   180    1
     4   169   170    2
     5   169   168    1
     6   180   183    1
     7   168   167    1
     8   168   171    1
     9   183   184    1
    10   171   172    1
    11   184   185    1
    12   173   172   ar
    13   173   175   ar
    14   172   174   ar
    15   186   185   ar
    16   185   187   ar
    17   175   177   ar
    18   174   176   ar
    19   157   158    2
    20   157   156    1
    21   161   163   ar
    22   161   160   ar
    23    31    30    2
    24   177   176   ar
    25   177   178    1
    26   156   159    1
    27   156   155    1
    28   163   165   ar
    29   159   160    1
    30    64    65    1
    31    64    61    1
    32    30    29    1
    33    35    33   ar
    34   144   143    2
    35   160   162   ar
    36    65    66    1
    37    61    60    1
    38    61    62    1
    39   155   143   am
    40    33    34   ar
    41    33    32    1
    42   165   166    1
    43   165   164   ar
    44   147   149   ar
    45   147   146   ar
    46   143   142    1
    47    55    54    2
    48   149   150   ar
    49    63    62    2
    50    68    66   ar
    51    60    54   am
    52    66    67   ar
    53    54    53    1
    54    29    32    1
    55    29    28    1
    56    62    69   am
    57   162   164   ar
    58    52    53    1
    59    53    56    1
    60   146   145    1
    61   146   148   ar
    62    28    21   am
    63   142   145    1
    64   142   141    1
    65   150   152   ar
    66   150   148   ar
    67    69    70    1
    68    58    57   ar
    69   152   154   ar
    70   148   151   ar
    71    73    70    1
    72    73    74    1
    73    73    75    1
    74    70    71    1
    75    21    20    1
    76    21    22    2
    77    56    57    1
    78    57    59   ar
    79    23    20    1
    80    23    24    1
    81    26    25   ar
    82    42    40    1
    83    20    19    1
    84    40    41    1
    85    40    37    1
    86   154   153   ar
    87    36    37    1
    88   151   153   ar
    89    39    38    2
    90    24    25    1
    91    25    27   ar
    92    71    72    2
    93    71    76   am
    94    37    38    1
    95     6     5    1
    96   139   140    1
    97   139   138    1
    98    38    43   am
    99    19     9   am
   100    76    77    1
   101    10     9    2
   102     5     2    1
   103   137   138    1
   104   137   136    1
   105     9     8    1
   106    43    44    1
   107   132   133    1
   108    77    80    1
   109    77    78    1
   110   133   136    1
   111   133   134    1
   112    44    47    1
   113    44    45    1
   114    48    49    1
   115    48    47    1
   116     1     2    1
   117   131   129    1
   118     2     3    1
   119    79    78    2
   120    80    81    1
   121    78    84   am
   122     8    11    1
   123     8     7    1
   124    11    12    1
   125    49    50    1
   126   130   129    1
   127    45    46    2
   128    84    85    1
   129    88    89    1
   130    88    85    1
   131   129   128    1
   132   123   121    1
   133   134   135    2
   134     3     4    2
   135    89    90   ar
   136    89    91   ar
   137    85    86    1
   138    81    83   ar
   139    81    82   ar
   140    12    14   ar
   141    12    13   ar
   142   121   122    1
   143   121   118    1
   144    50    51    1
   145    14    16   ar
   146   128   125    1
   147    13    15   ar
   148    86    87    2
   149    86    92   am
   150   125   124    1
   151   125   126    1
   152   124   119   am
   153   119   120    2
   154   119   118    1
   155   118   117    1
   156    16    17   ar
   157    92    93    1
   158   109   107    1
   159    15    17   ar
   160   127   126    2
   161   117   112   am
   162    17    18    1
   163    99   100    1
   164    99    94   am
   165   106   107    2
   166   106   105    1
   167   100   103    1
   168   100   101    1
   169   107   108    1
   170    93    94    1
   171    93    96    1
   172   104   103    1
   173   104   105    1
   174    97    96    1
   175    98    96    1
   176    94    95    2
   177   101   110   am
   178   101   102    2
   179   112   113    2
   180   112   111    1
   181   110   111    1
   182   115   114    1
   183   111   114    1
   184   114   116    1
