@<TRIPOS>MOLECULE
tmp/2jl4A00.pdb
 149 145 0 0 0
SMALL
GASTEIGER

@<TRIPOS>ATOM
      1  N         15.7170    5.4250   47.9730 N.3     9  SER9       -0.1202
      2  CA        14.4740    4.9880   47.3330 C.3     9  SER9        0.2020
      3  C         13.7080    3.9760   48.1970 C.2     9  SER9        0.2619
      4  O         14.2500    2.9250   48.5700 O.2     9  SER9       -0.2717
      5  CB        14.7550    4.4090   45.9460 C.3     9  SER9        0.2103
      6  OG        13.6280    3.6940   45.4540 O.3     9  SER9       -0.2182
      7  N         12.4570    4.3100   48.5210 N.am   10  GLY10      -0.1942
      8  CA        11.5980    3.4510   49.3430 C.3    10  GLY10       0.2014
      9  C         11.2810    2.0910   48.7140 C.2    10  GLY10       0.2639
     10  O         11.3020    1.0580   49.4040 O.2    10  GLY10      -0.2714
     11  N         10.9940    2.0960   47.4090 N.am   11  THR11      -0.1950
     12  CA        10.7630    0.8710   46.6500 C.3    11  THR11       0.1897
     13  C         12.0460    0.0360   46.5150 C.2    11  THR11       0.2313
     14  O         11.9950   -1.1840   46.6330 O.2    11  THR11      -0.2863
     15  CB        10.1730    1.1700   45.2500 C.3    11  THR11       0.1794
     16  OG1       11.0390    2.0660   44.5450 O.3    11  THR11      -0.2208
     17  CG2        8.7580    1.8060   45.3620 C.3    11  THR11       0.0378
     18  N         12.4240   -1.5530   49.8200 N.3    14  ARG14      -0.1245
     19  CA        11.4340   -2.6200   49.8600 C.3    14  ARG14       0.1563
     20  C         11.9720   -3.9070   49.2080 C.2    14  ARG14       0.2260
     21  O         11.9120   -4.9910   49.8000 O.2    14  ARG14      -0.2867
     22  CB        10.1560   -2.1380   49.1690 C.3    14  ARG14       0.0307
     23  CG         8.9740   -3.0970   49.1810 C.3    14  ARG14       0.0489
     24  CD         7.9120   -2.6290   48.1870 C.3    14  ARG14       0.2205
     25  NE         7.4310   -1.2710   48.4530 N.pl3  14  ARG14      -0.0865
     26  CZ         6.7350   -0.5240   47.5920 C.cat  14  ARG14       0.5346
     27  NH1        6.4310   -0.9750   46.3690 N.pl3  14  ARG14       0.1354
     28  NH2        6.3370    0.6890   47.9590 N.pl3  14  ARG14       0.1354
     29  N         19.0720    9.0480   41.5750 N.3    33  LEU33      -0.1245
     30  CA        17.8450    9.8020   41.2770 C.3    33  LEU33       0.1561
     31  C         18.0400   11.3170   41.3600 C.2    33  LEU33       0.2260
     32  O         17.4570   12.0650   40.5780 O.2    33  LEU33      -0.2867
     33  CB        16.6790    9.3600   42.1790 C.3    33  LEU33       0.0270
     34  CG        16.3330    7.8610   42.2350 C.3    33  LEU33       0.0019
     35  CD1       15.1980    7.6340   43.2220 C.3    33  LEU33       0.0001
     36  CD2       15.9800    7.2860   40.8670 C.3    33  LEU33       0.0001
     37  N         18.1660    8.1530   36.0690 N.3    38  HIS38      -0.1226
     38  CA        16.9910    7.4000   35.6300 C.3    38  HIS38       0.1752
     39  C         16.2190    8.0790   34.4860 C.2    38  HIS38       0.2595
     40  O         15.4470    7.4230   33.7720 O.2    38  HIS38      -0.2718
     41  CB        16.0620    7.1420   36.8210 C.3    38  HIS38       0.0759
     42  CG        15.4660    8.3880   37.4070 C.ar   38  HIS38       0.0818
     43  ND1       16.2310    9.3850   37.9720 N.ar   38  HIS38      -0.2268
     44  CD2       14.1790    8.7920   37.5240 C.ar   38  HIS38       0.1154
     45  CE1       15.4430   10.3570   38.4010 C.ar   38  HIS38       0.1986
     46  NE2       14.1920   10.0170   38.1520 N.ar   38  HIS38      -0.2212
     47  N         16.4210    9.3820   34.3030 N.am   39  LEU39      -0.1980
     48  CA        15.6940   10.1150   33.2550 C.3    39  LEU39       0.1596
     49  C         16.4480   10.1530   31.9350 C.2    39  LEU39       0.2287
     50  O         15.9760   10.7450   30.9490 O.2    39  LEU39      -0.2864
     51  CB        15.3280   11.5320   33.7110 C.3    39  LEU39       0.0297
     52  CG        14.3280   11.6280   34.8620 C.3    39  LEU39       0.0022
     53  CD1       13.9220   13.0940   35.0740 C.3    39  LEU39       0.0001
     54  CD2       13.1050   10.7290   34.6170 C.3    39  LEU39       0.0001
     55  N         11.8630    4.2770   36.2850 N.3    51  LEU51      -0.1231
     56  CA        11.8330    4.3460   37.7460 C.3    51  LEU51       0.1693
     57  C         12.7180    3.2360   38.3250 C.2    51  LEU51       0.2592
     58  O         13.0480    2.2750   37.6360 O.2    51  LEU51      -0.2718
     59  CB        10.3960    4.2340   38.2840 C.3    51  LEU51       0.0284
     60  CG         9.3070    5.2580   37.9160 C.3    51  LEU51       0.0019
     61  CD1        7.9050    4.8110   38.4250 C.3    51  LEU51       0.0001
     62  CD2        9.6350    6.6670   38.4080 C.3    51  LEU51       0.0001
     63  N         13.1320    3.3850   39.5810 N.am   52  VAL52      -0.1966
     64  CA        13.7970    2.2910   40.2620 C.3    52  VAL52       0.1712
     65  C         12.8050    1.6160   41.2150 C.2    52  VAL52       0.2458
     66  O         11.8400    2.2410   41.6400 O.2    52  VAL52      -0.2730
     67  CB        15.1050    2.7230   40.9820 C.3    52  VAL52       0.0289
     68  CG1       16.1560    3.1920   39.9560 C.3    52  VAL52       0.0023
     69  CG2       14.8470    3.7670   42.0610 C.3    52  VAL52       0.0023
     70  N         13.0300    0.3350   41.5480 N.am   53  PRO53      -0.2727
     71  CA        14.1430   -0.5040   41.1220 C.3    53  PRO53       0.1402
     72  C         13.8580   -1.2790   39.8330 C.2    53  PRO53       0.2269
     73  O         12.7120   -1.3730   39.4000 O.2    53  PRO53      -0.2865
     74  CB        14.2890   -1.4680   42.2930 C.3    53  PRO53       0.0296
     75  CG        12.8640   -1.6460   42.7960 C.3    53  PRO53       0.0237
     76  CD        12.1160   -0.3830   42.4570 C.3    53  PRO53       0.0939
     77  N          8.7680   -3.1230   38.3790 N.3    64  GLN64      -0.1231
     78  CA         7.6490   -3.1150   39.3410 C.3    64  GLN64       0.1698
     79  C          7.9040   -3.9700   40.5800 C.2    64  GLN64       0.2593
     80  O          7.6900   -5.1900   40.5680 O.2    64  GLN64      -0.2718
     81  CB         6.3070   -3.4800   38.6910 C.3    64  GLN64       0.0381
     82  CG         5.7390   -2.3930   37.7870 C.3    64  GLN64       0.0905
     83  CD         5.4100   -1.1050   38.5230 C.2    64  GLN64       0.2608
     84  OE1        5.0010   -1.1110   39.6910 O.2    64  GLN64      -0.2717
     85  NE2        5.5700    0.0080   37.8360 N.am   64  GLN64      -0.0878
     86  N          8.3260   -3.3090   41.6600 N.am   65  SER65      -0.1939
     87  CA         8.6880   -3.9980   42.8990 C.3    65  SER65       0.2040
     88  C          7.5930   -4.9140   43.4660 C.2    65  SER65       0.2485
     89  O          7.9180   -5.9880   43.9550 O.2    65  SER65      -0.2729
     90  CB         9.2590   -3.0230   43.9570 C.3    65  SER65       0.2129
     91  OG         8.2550   -2.2760   44.6140 O.3    65  SER65      -0.2179
     92  N          6.3020   -4.5110   43.3990 N.am   66  PRO66      -0.2726
     93  CA         5.2560   -5.4270   43.8870 C.3    66  PRO66       0.1402
     94  C          5.2470   -6.7560   43.1340 C.2    66  PRO66       0.2269
     95  O          5.1210   -7.8060   43.7620 O.2    66  PRO66      -0.2865
     96  CB         3.9600   -4.6660   43.6030 C.3    66  PRO66       0.0296
     97  CG         4.3540   -3.2430   43.5900 C.3    66  PRO66       0.0237
     98  CD         5.7030   -3.2520   42.9150 C.3    66  PRO66       0.0939
     99  N          1.9370    0.4940   49.3080 N.3   100  GLY100     -0.1225
    100  CA         2.3750    0.4090   47.9170 C.3   100  GLY100      0.1811
    101  C          1.5610    1.2120   46.9220 C.2   100  GLY100      0.2280
    102  O          2.0950    1.6770   45.9040 O.2   100  GLY100     -0.2866
    103  N          3.2350    5.4470   49.2740 N.3   104  HIS104     -0.1227
    104  CA         4.5000    5.7100   48.6040 C.3   104  HIS104      0.1737
    105  C          4.3810    6.5430   47.3130 C.2   104  HIS104      0.2438
    106  O          5.1180    7.5140   47.1430 O.2   104  HIS104     -0.2733
    107  CB         5.2900    4.4290   48.3010 C.3   104  HIS104      0.0758
    108  CG         6.3340    4.6380   47.2520 C.ar  104  HIS104      0.0818
    109  ND1        6.0680    4.4950   45.9050 N.ar  104  HIS104     -0.2268
    110  CD2        7.6100    5.0820   47.3420 C.ar  104  HIS104      0.1154
    111  CE1        7.1490    4.8110   45.2120 C.ar  104  HIS104      0.1986
    112  NE2        8.0980    5.1700   46.0600 N.ar  104  HIS104     -0.2212
    113  N          3.4860    6.1450   46.3850 N.am  105  PRO105     -0.2729
    114  CA         3.5120    6.8130   45.0750 C.3   105  PRO105      0.1401
    115  C          3.1470    8.2940   45.1340 C.2   105  PRO105      0.2269
    116  O          3.5030    9.0470   44.2280 O.2   105  PRO105     -0.2865
    117  CB         2.4630    6.0480   44.2620 C.3   105  PRO105      0.0296
    118  CG         2.2790    4.7420   45.0030 C.3   105  PRO105      0.0237
    119  CD         2.4480    5.0970   46.4380 C.3   105  PRO105      0.0939
    120  N          6.4660   10.4010   45.8720 N.3   108  ASN108     -0.1225
    121  CA         7.5680   10.1450   44.9400 C.3   108  ASN108      0.1785
    122  C          8.1940   11.4440   44.4300 C.2   108  ASN108      0.2597
    123  O          7.5070   12.4760   44.3210 O.2   108  ASN108     -0.2718
    124  CB         7.0380    9.3180   43.7600 C.3   108  ASN108      0.1169
    125  CG         8.1150    8.4850   43.0740 C.2   108  ASN108      0.2627
    126  OD1        9.2470    8.3530   43.5680 O.2   108  ASN108     -0.2716
    127  ND2        7.7560    7.9040   41.9210 N.am  108  ASN108     -0.0877
    128  N          9.4900   11.3840   44.1310 N.am  109  ARG109     -0.1966
    129  CA        10.2760   12.5300   43.6490 C.3   109  ARG109      0.1729
    130  C          9.6130   13.3600   42.5350 C.2   109  ARG109      0.2616
    131  O          9.5740   14.6010   42.6050 O.2   109  ARG109     -0.2715
    132  CB        11.6570   12.0580   43.1740 C.3   109  ARG109      0.0348
    133  CG        12.6420   13.1870   42.8930 C.3   109  ARG109      0.0492
    134  CD        13.8830   12.6930   42.1710 C.3   109  ARG109      0.2205
    135  NE        14.8370   13.7820   41.9730 N.pl3 109  ARG109     -0.0865
    136  CZ        14.8150   14.6230   40.9450 C.cat 109  ARG109      0.5346
    137  NH1       13.8900   14.4970   40.0030 N.pl3 109  ARG109      0.1354
    138  NH2       15.7250   15.5840   40.8540 N.pl3 109  ARG109      0.1354
    139  N          9.1050   12.6650   41.5190 N.am  110  ARG110     -0.1977
    140  CA         8.5110   13.3030   40.3480 C.3   110  ARG110      0.1597
    141  C          7.3090   14.1480   40.7420 C.2   110  ARG110      0.2287
    142  O          7.1090   15.2330   40.1950 O.2   110  ARG110     -0.2864
    143  CB         8.1290   12.2520   39.2940 C.3   110  ARG110      0.0334
    144  CG         7.0290   11.2810   39.7530 C.3   110  ARG110      0.0492
    145  CD         6.9210   10.0310   38.8970 C.3   110  ARG110      0.2205
    146  NE         5.7650    9.2600   39.3320 N.pl3 110  ARG110     -0.0865
    147  CZ         4.8400    8.7410   38.5290 C.cat 110  ARG110      0.5346
    148  NH1        4.9460    8.8440   37.1990 N.pl3 110  ARG110      0.1354
    149  NH2        3.8220    8.0810   39.0660 N.pl3 110  ARG110      0.1354
@<TRIPOS>BOND
     1    50    49    2
     2    49    48    1
     3    48    51    1
     4    48    47    1
     5    51    52    1
     6    40    39    2
     7    47    39   am
     8    39    38    1
     9    54    52    1
    10    52    53    1
    11    38    37    1
    12    38    41    1
    13    55    56    1
    14    41    42    1
    15   148   147    1
    16    42    44   ar
    17    42    43   ar
    18    44    46   ar
    19    58    57    2
    20    56    59    1
    21    56    57    1
    22    82    83    1
    23    82    81    1
    24    85    83   am
    25    60    59    1
    26    60    62    1
    27    60    61    1
    28    43    45   ar
    29    46    45   ar
    30    57    63   am
    31    77    78    1
    32    83    84    2
    33   147   149    1
    34   147   146    2
    35    81    78    1
    36   145   146    1
    37   145   144    1
    38   143   144    1
    39   143   140    1
    40    78    79    1
    41    73    72    2
    42    63    64    1
    43    72    71    1
    44    68    67    1
    45   137   136    1
    46   142   141    2
    47    64    67    1
    48    64    65    1
    49   140   141    1
    50   140   139    1
    51    80    79    2
    52    32    31    2
    53    79    86   am
    54   138   136    1
    55    36    34    1
    56   136   135    2
    57    67    69    1
    58    71    70    1
    59    71    74    1
    60    65    70   am
    61    65    66    2
    62    30    31    1
    63    30    29    1
    64    30    33    1
    65   139   130   am
    66    70    76    1
    67    86    87    1
    68   127   125   am
    69   135   134    1
    70   134   133    1
    71    33    34    1
    72    34    35    1
    73    74    75    1
    74    76    75    1
    75   130   131    2
    76   130   129    1
    77   133   132    1
    78    87    88    1
    79    87    90    1
    80    98    92    1
    81    98    97    1
    82   125   126    2
    83   125   124    1
    84    94    95    2
    85    94    93    1
    86   132   129    1
    87    92    88   am
    88    92    93    1
    89    88    89    2
    90    97    96    1
    91    96    93    1
    92   129   128    1
    93   124   121    1
    94    90    91    1
    95   128   122   am
    96   116   115    2
    97   117   118    1
    98   117   114    1
    99   123   122    2
   100   122   121    1
   101    16    15    1
   102   121   120    1
   103   118   119    1
   104   114   115    1
   105   114   113    1
   106   111   109   ar
   107   111   112   ar
   108    15    17    1
   109    15    12    1
   110     6     5    1
   111   102   101    2
   112   109   108   ar
   113     5     2    1
   114   112   110   ar
   115    27    26    1
   116   113   119    1
   117   113   105   am
   118    13    14    2
   119    13    12    1
   120    12    11    1
   121   101   100    1
   122   106   105    2
   123   108   110   ar
   124   108   107    1
   125   105   104    1
   126     2     1    1
   127     2     3    1
   128    11     9   am
   129    26    28    1
   130    26    25    2
   131   100    99    1
   132    24    25    1
   133    24    23    1
   134     3     7   am
   135     3     4    2
   136   107   104    1
   137     7     8    1
   138   104   103    1
   139     9     8    1
   140     9    10    2
   141    22    23    1
   142    22    19    1
   143    20    21    2
   144    20    19    1
   145    18    19    1
