@<TRIPOS>MOLECULE
tmp/2jldB00.pdb
 155 147 0 0 0
SMALL
GASTEIGER

@<TRIPOS>ATOM
      1  N         60.6880  109.7630   14.0430 N.3    28  ILE28      -0.1245
      2  CA        59.7380  108.7710   13.5530 C.3    28  ILE28       0.1561
      3  C         59.5370  107.7060   14.6310 C.2    28  ILE28       0.2260
      4  O         58.4160  107.3430   14.9500 O.2    28  ILE28      -0.2867
      5  CB        60.1570  108.1400   12.2120 C.3    28  ILE28       0.0252
      6  CG1       60.0750  109.1870   11.1020 C.3    28  ILE28       0.0019
      7  CG2       59.2220  106.9890   11.8400 C.3    28  ILE28       0.0019
      8  CD1       60.6490  108.7440    9.7770 C.3    28  ILE28       0.0001
      9  N         66.8780   99.1840   16.9030 N.3    33  PHE33      -0.1241
     10  CA        67.4660   99.6590   15.6590 C.3    33  PHE33       0.1605
     11  C         68.0850  101.0610   15.7540 C.2    33  PHE33       0.2264
     12  O         68.6670  101.5320   14.7800 O.2    33  PHE33      -0.2867
     13  CB        66.3840   99.6800   14.5600 C.3    33  PHE33       0.0534
     14  CG        65.1180  100.4250   14.9590 C.ar   33  PHE33      -0.0203
     15  CD1       65.0360  101.8070   14.8400 C.ar   33  PHE33      -0.0042
     16  CD2       64.0240   99.7350   15.4620 C.ar   33  PHE33      -0.0042
     17  CE1       63.8990  102.4800   15.2070 C.ar   33  PHE33      -0.0003
     18  CE2       62.8760  100.4000   15.8370 C.ar   33  PHE33      -0.0003
     19  CZ        62.8110  101.7780   15.7100 C.ar   33  PHE33      -0.0000
     20  N         65.1540  106.6820   14.3860 N.3    36  VAL36      -0.1245
     21  CA        64.8480  107.0990   13.0420 C.3    36  VAL36       0.1561
     22  C         64.1720  108.4620   13.1010 C.2    36  VAL36       0.2260
     23  O         63.1650  108.6640   13.7940 O.2    36  VAL36      -0.2867
     24  CB        64.0200  106.0230   12.2960 C.3    36  VAL36       0.0252
     25  CG1       63.7160  106.4560   10.8470 C.3    36  VAL36       0.0019
     26  CG2       64.7700  104.6900   12.3040 C.3    36  VAL36       0.0019
     27  N         64.7770  110.0360    5.6900 N.3    49  ALA49      -0.1245
     28  CA        64.8720  109.4710    7.0170 C.3    49  ALA49       0.1562
     29  C         66.3590  109.4940    7.4480 C.2    49  ALA49       0.2260
     30  O         67.2440  109.3320    6.6130 O.2    49  ALA49      -0.2867
     31  CB        64.3400  108.0470    6.9950 C.3    49  ALA49       0.0290
     32  N         68.6940  107.5090   10.1850 N.3    51  LYS51      -0.1245
     33  CA        68.8410  106.4810   11.2170 C.3    51  LYS51       0.1561
     34  C         70.1670  106.6790   11.9540 C.2    51  LYS51       0.2260
     35  O         71.2450  106.6230   11.3540 O.2    51  LYS51      -0.2867
     36  CB        68.7920  105.1080   10.5790 C.3    51  LYS51       0.0271
     37  CG        68.9050  103.9430   11.5290 C.3    51  LYS51       0.0035
     38  CD        68.8340  102.6120   10.7470 C.3    51  LYS51       0.0206
     39  CE        69.3360  101.4920   11.5960 C.3    51  LYS51       0.1093
     40  NZ        68.8660  100.1660   11.1190 N.3    51  LYS51      -0.1314
     41  N         65.1360  100.7770    0.5880 N.3    76  VAL76      -0.1245
     42  CA        65.4680  102.1620    0.9040 C.3    76  VAL76       0.1561
     43  C         66.9200  102.4490    0.5220 C.2    76  VAL76       0.2260
     44  O         67.8020  101.6720    0.7830 O.2    76  VAL76      -0.2867
     45  CB        65.1610  102.5390    2.3980 C.3    76  VAL76       0.0252
     46  CG1       63.6290  102.5240    2.6070 C.3    76  VAL76       0.0019
     47  CG2       65.8750  101.6490    3.3270 C.3    76  VAL76       0.0019
     48  N         68.6260  108.0730    4.5760 N.3    98  LEU98      -0.1231
     49  CA        67.9170  107.0910    3.7670 C.3    98  LEU98       0.1693
     50  C         66.6530  107.6630    3.0790 C.2    98  LEU98       0.2592
     51  O         66.1390  108.6990    3.4830 O.2    98  LEU98      -0.2718
     52  CB        67.5130  105.9380    4.6660 C.3    98  LEU98       0.0284
     53  CG        68.7010  105.2550    5.3420 C.3    98  LEU98       0.0019
     54  CD1       68.3580  104.7400    6.7050 C.3    98  LEU98       0.0001
     55  CD2       69.2490  104.1630    4.4540 C.3    98  LEU98       0.0001
     56  N         66.1480  106.9790    2.0490 N.am   99  ASP99      -0.1960
     57  CA        64.8020  107.2970    1.4950 C.3    99  ASP99       0.1840
     58  C         63.8110  107.3130    2.6800 C.2    99  ASP99       0.2622
     59  O         63.8910  106.4740    3.5940 O.2    99  ASP99      -0.2715
     60  CB        64.3130  106.2330    0.4850 C.3    99  ASP99       0.1450
     61  CG        65.0290  106.2760   -0.8720 C.2    99  ASP99       0.3671
     62  OD1       65.5690  107.3300   -1.2710 O.co2  99  ASP99      -0.2456
     63  OD2       65.0020  105.2260   -1.5810 O.co2  99  ASP99      -0.2456
     64  N         62.9260  108.2920    2.6950 N.am  100  TYR100     -0.1960
     65  CA        61.7620  108.2610    3.5730 C.3   100  TYR100      0.1771
     66  C         60.5450  107.7790    2.7870 C.2   100  TYR100      0.2619
     67  O         60.3470  108.1440    1.6340 O.2   100  TYR100     -0.2715
     68  CB        61.4860  109.6250    4.1760 C.3   100  TYR100      0.0574
     69  CG        60.1700  109.7210    4.8780 C.ar  100  TYR100     -0.0198
     70  CD1       60.0050  109.2330    6.1670 C.ar  100  TYR100     -0.0009
     71  CD2       59.0890  110.3180    4.2570 C.ar  100  TYR100     -0.0009
     72  CE1       58.7940  109.3350    6.8020 C.ar  100  TYR100      0.0417
     73  CE2       57.8920  110.4250    4.8840 C.ar  100  TYR100      0.0417
     74  CZ        57.7370  109.9340    6.1420 C.ar  100  TYR100      0.1957
     75  OH        56.5050  110.0560    6.7190 O.3   100  TYR100     -0.2866
     76  N         59.7690  106.9070    3.4150 N.am  101  VAL101     -0.1964
     77  CA        58.5490  106.3980    2.8190 C.3   101  VAL101      0.1712
     78  C         57.4810  106.5930    3.8920 C.2   101  VAL101      0.2458
     79  O         57.7460  106.3470    5.0670 O.2   101  VAL101     -0.2730
     80  CB        58.7170  104.9110    2.4270 C.3   101  VAL101      0.0289
     81  CG1       57.5300  104.4070    1.6850 C.3   101  VAL101      0.0023
     82  CG2       59.9440  104.7340    1.5630 C.3   101  VAL101      0.0023
     83  N         56.2780  107.0590    3.5120 N.am  102  PRO102     -0.2716
     84  CA        55.3530  107.4960    4.5770 C.3   102  PRO102      0.1536
     85  C         54.5000  106.4490    5.3130 C.2   102  PRO102      0.2598
     86  O         53.8170  106.8140    6.2260 O.2   102  PRO102     -0.2715
     87  CB        54.4500  108.5310    3.8670 C.3   102  PRO102      0.0310
     88  CG        54.5270  108.2000    2.4280 C.3   102  PRO102      0.0237
     89  CD        55.7890  107.4030    2.1720 C.3   102  PRO102      0.0939
     90  N         54.5180  105.1830    4.9290 N.am  103  GLU103     -0.1964
     91  CA        53.6790  104.1590    5.5740 C.3   103  GLU103      0.1733
     92  C         54.4210  102.8560    5.6940 C.2   103  GLU103      0.2617
     93  O         55.4340  102.6630    5.0290 O.2   103  GLU103     -0.2715
     94  CB        52.3920  103.8520    4.7400 C.3   103  GLU103      0.0429
     95  CG        51.1740  104.7240    5.0210 C.3   103  GLU103      0.1163
     96  CD        50.5850  104.5140    6.4160 C.2   103  GLU103      0.3649
     97  OE1       50.6260  103.3650    6.9100 O.co2 103  GLU103     -0.2457
     98  OE2       50.0770  105.4990    7.0080 O.co2 103  GLU103     -0.2457
     99  N         53.8520  101.9480    6.4920 N.am  104  THR104     -0.1951
    100  CA        54.3160  100.5740    6.5940 C.3   104  THR104      0.1897
    101  C         53.2120   99.6050    6.2640 C.2   104  THR104      0.2313
    102  O         52.0420   99.9440    6.3810 O.2   104  THR104     -0.2863
    103  CB        54.8320  100.2630    7.9880 C.3   104  THR104      0.1794
    104  OG1       53.7380  100.2810    8.8990 O.3   104  THR104     -0.2208
    105  CG2       55.9280  101.3060    8.4340 C.3   104  THR104      0.0378
    106  N         51.0860   99.1740    9.4790 N.3   107  ARG107     -0.1245
    107  CA        50.0000  100.1220    9.6240 C.3   107  ARG107      0.1563
    108  C         48.8730   99.8960    8.6200 C.2   107  ARG107      0.2260
    109  O         47.7510   99.9280    9.0010 O.2   107  ARG107     -0.2867
    110  CB        50.4900  101.5570    9.5350 C.3   107  ARG107      0.0307
    111  CG        51.3870  101.9490   10.7040 C.3   107  ARG107      0.0489
    112  CD        51.2530  103.4130   11.0590 C.3   107  ARG107      0.2205
    113  NE        51.7780  104.2750   10.0000 N.pl3 107  ARG107     -0.0865
    114  CZ        52.8250  105.1020   10.1070 C.cat 107  ARG107      0.5346
    115  NH1       53.1830  105.8380    9.0580 N.pl3 107  ARG107      0.1354
    116  NH2       53.5090  105.2310   11.2420 N.pl3 107  ARG107      0.1354
    117  N         56.4740   95.5580    9.6670 N.3   151  GLN151     -0.1231
    118  CA        57.0500   96.8480   10.0530 C.3   151  GLN151      0.1698
    119  C         58.2480   97.2770    9.2250 C.2   151  GLN151      0.2592
    120  O         58.5370   98.4430    9.1060 O.2   151  GLN151     -0.2718
    121  CB        57.4710   96.8310   11.5280 C.3   151  GLN151      0.0381
    122  CG        56.3540   97.1840   12.5360 C.3   151  GLN151      0.0905
    123  CD        56.9100   97.6100   13.9080 C.2   151  GLN151      0.2608
    124  OE1       56.6000   98.6910   14.4080 O.2   151  GLN151     -0.2717
    125  NE2       57.7600   96.7740   14.4900 N.am  151  GLN151     -0.0878
    126  N         58.9720   96.3250    8.6780 N.am  152  ASN152     -0.1974
    127  CA        60.1630   96.6750    7.9130 C.3   152  ASN152      0.1688
    128  C         59.8500   96.7990    6.4430 C.2   152  ASN152      0.2292
    129  O         60.7670   96.9550    5.6520 O.2   152  ASN152     -0.2864
    130  CB        61.2670   95.6560    8.1500 C.3   152  ASN152      0.1181
    131  CG        61.9030   95.8270    9.4780 C.2   152  ASN152      0.2629
    132  OD1       61.8430   96.9050   10.0850 O.2   152  ASN152     -0.2716
    133  ND2       62.5190   94.7710    9.9530 N.am  152  ASN152     -0.0877
    134  N         58.0880   99.1710    3.9450 N.3   154  LEU154     -0.1245
    135  CA        57.5720  100.5280    3.8550 C.3   154  LEU154      0.1561
    136  C         56.7930  100.7030    2.5470 C.2   154  LEU154      0.2260
    137  O         57.0550  100.0100    1.5800 O.2   154  LEU154     -0.2867
    138  CB        58.6920  101.5240    3.9270 C.3   154  LEU154      0.0270
    139  CG        59.6540  101.4320    5.1030 C.3   154  LEU154      0.0019
    140  CD1       60.7230  102.5650    4.9720 C.3   154  LEU154      0.0001
    141  CD2       58.9330  101.5000    6.4810 C.3   154  LEU154      0.0001
    142  N         63.2950   97.9520    4.4530 N.3   165  CYS165     -0.1221
    143  CA        64.0990   98.7870    5.2980 C.3   165  CYS165      0.1808
    144  C         64.6480   97.9870    6.4630 C.2   165  CYS165      0.2601
    145  O         64.3090   96.7940    6.6730 O.2   165  CYS165     -0.2717
    146  CB        63.3100  100.0150    5.7600 C.3   165  CYS165      0.0970
    147  SG        62.2570   99.7900    7.1830 S.3   165  CYS165     -0.0800
    148  N         65.4860   98.6720    7.2210 N.am  166  ASP166     -0.1973
    149  CA        66.1480   98.1190    8.4040 C.3   166  ASP166      0.1709
    150  C         67.0870   96.9410    8.1250 C.2   166  ASP166      0.2293
    151  O         66.7330   95.7540    8.3340 O.2   166  ASP166     -0.2864
    152  CB        65.1800   97.7450    9.5450 C.3   166  ASP166      0.1436
    153  CG        65.9350   97.5710   10.9150 C.2   166  ASP166      0.3671
    154  OD1       67.1860   97.6550   10.9260 O.co2 166  ASP166     -0.2456
    155  OD2       65.3050   97.3660   11.9810 O.co2 166  ASP166     -0.2456
@<TRIPOS>BOND
     1    63    61   ar
     2    62    61   ar
     3    61    60    1
     4    60    57    1
     5    43    44    2
     6    43    42    1
     7    41    42    1
     8    42    45    1
     9    57    56    1
    10    57    58    1
    11    82    80    1
    12   137   136    2
    13    67    66    2
    14    81    80    1
    15    56    50   am
    16    89    88    1
    17    89    83    1
    18    45    46    1
    19    45    47    1
    20    80    77    1
    21    88    87    1
    22   136   135    1
    23    58    64   am
    24    58    59    2
    25    64    65    1
    26    66    76   am
    27    66    65    1
    28    77    76    1
    29    77    78    1
    30    50    51    2
    31    50    49    1
    32    83    78   am
    33    83    84    1
    34    65    68    1
    35    49    48    1
    36    49    52    1
    37   135   138    1
    38   135   134    1
    39    87    84    1
    40    78    79    2
    41   138   139    1
    42    68    69    1
    43    71    69   ar
    44    71    73   ar
    45   142   143    1
    46    55    53    1
    47    84    85    1
    48    52    53    1
    49    94    95    1
    50    94    91    1
    51    69    70   ar
    52    73    74   ar
    53    90    85   am
    54    90    91    1
    55   140   139    1
    56    95    96    1
    57    93    92    2
    58   139   141    1
    59   143   146    1
    60   143   144    1
    61    85    86    2
    62    53    54    1
    63    91    92    1
    64   129   128    2
    65    27    28    1
    66    92    99   am
    67   146   147    1
    68    74    75    1
    69    74    72   ar
    70    70    72   ar
    71   101   102    2
    72   101   100    1
    73    96    97   ar
    74    96    98   ar
    75   128   127    1
    76   144   145    2
    77   144   148   am
    78    99   100    1
    79   100   103    1
    80    30    29    2
    81    31    28    1
    82    28    29    1
    83   148   149    1
    84   127   130    1
    85   127   126    1
    86   103   105    1
    87   103   104    1
    88   150   151    2
    89   150   149    1
    90   130   131    1
    91   149   152    1
    92   108   109    2
    93   108   107    1
    94   126   119   am
    95   115   114    1
    96   120   119    2
    97   119   118    1
    98   131   133   am
    99   131   132    2
   100   106   107    1
   101   110   107    1
   102   110   111    1
   103   152   153    1
   104   117   118    1
   105     8     6    1
   106   113   114    2
   107   113   112    1
   108   118   121    1
   109   114   116    1
   110    32    33    1
   111    36    33    1
   112    36    37    1
   113   111   112    1
   114    38    37    1
   115    38    39    1
   116    25    24    1
   117   153   154   ar
   118   153   155   ar
   119     6     5    1
   120    40    39    1
   121    33    34    1
   122    35    34    2
   123   121   122    1
   124     7     5    1
   125     5     2    1
   126    24    26    1
   127    24    21    1
   128   122   123    1
   129    21    22    1
   130    21    20    1
   131    22    23    2
   132     2     1    1
   133     2     3    1
   134   123   124    2
   135   123   125   am
   136    13    14    1
   137    13    10    1
   138     3     4    2
   139    12    11    2
   140    15    14   ar
   141    15    17   ar
   142    14    16   ar
   143    17    19   ar
   144    16    18   ar
   145    10    11    1
   146    10     9    1
   147    19    18   ar
