@<TRIPOS>MOLECULE
tmp/2jleA00.pdb
 158 156 0 0 0
SMALL
GASTEIGER

@<TRIPOS>ATOM
      1  N        -11.6480  -21.9590   22.0420 N.3    95  PRO95      -0.2116
      2  CA       -10.8130  -21.6070   20.9060 C.3    95  PRO95       0.1372
      3  C         -9.3310  -21.5470   21.2350 C.2    95  PRO95       0.2244
      4  O         -8.9600  -21.1560   22.3110 O.2    95  PRO95      -0.2868
      5  CB       -11.4150  -20.2910   20.3900 C.3    95  PRO95       0.0268
      6  CG       -12.2960  -19.7840   21.5070 C.3    95  PRO95       0.0207
      7  CD       -12.1710  -20.7520   22.6850 C.3    95  PRO95       0.0892
      8  N         -7.4940  -19.3300   15.1730 N.3   100  LEU100     -0.1231
      9  CA        -8.1460  -18.0180   14.9760 C.3   100  LEU100      0.1693
     10  C         -7.7600  -17.7070   13.5590 C.2   100  LEU100      0.2591
     11  O         -6.6050  -17.8890   13.2360 O.2   100  LEU100     -0.2718
     12  CB        -7.6180  -16.9670   15.9580 C.3   100  LEU100      0.0284
     13  CG        -8.2350  -17.1350   17.3460 C.3   100  LEU100      0.0019
     14  CD1       -7.6720  -16.2330   18.4320 C.3   100  LEU100      0.0001
     15  CD2       -9.7290  -17.0530   17.2860 C.3   100  LEU100      0.0001
     16  N         -8.7280  -17.4380   12.6790 N.am  101  LYS101     -0.1980
     17  CA        -8.4090  -17.2110   11.2710 C.3   101  LYS101      0.1596
     18  C         -7.6250  -15.9210   11.2010 C.2   101  LYS101      0.2287
     19  O         -7.7630  -15.0860   12.0920 O.2   101  LYS101     -0.2864
     20  CB        -9.6550  -17.1250   10.4220 C.3   101  LYS101      0.0298
     21  CG        -9.3570  -16.8330    8.9630 C.3   101  LYS101      0.0038
     22  CD       -10.6770  -16.6400    8.1480 C.3   101  LYS101      0.0206
     23  CE       -10.4770  -16.6520    6.6040 C.3   101  LYS101      0.1093
     24  NZ       -11.6890  -17.2040    5.8500 N.3   101  LYS101     -0.1314
     25  N         -7.3990  -12.7660   10.3960 N.3   103  LYS103     -0.1245
     26  CA        -8.3640  -11.7350   10.0170 C.3   103  LYS103      0.1561
     27  C         -7.8240  -10.3070    9.9160 C.2   103  LYS103      0.2260
     28  O         -7.1260   -9.8240   10.8010 O.2   103  LYS103     -0.2867
     29  CB        -9.5740  -11.7840   10.9400 C.3   103  LYS103      0.0271
     30  CG       -10.6430  -12.6510   10.3700 C.3   103  LYS103      0.0035
     31  CD       -10.6930  -12.4230    8.8710 C.3   103  LYS103      0.0206
     32  CE       -10.6050  -13.7140    8.0600 C.3   103  LYS103      0.1093
     33  NZ        -9.4390  -13.7760    7.0940 N.3   103  LYS103     -0.1314
     34  N        -10.1290   -6.9930   13.4780 N.3   106  VAL106     -0.1231
     35  CA       -10.6850   -7.6880   14.6490 C.3   106  VAL106      0.1692
     36  C        -11.2090   -6.7360   15.7470 C.2   106  VAL106      0.2593
     37  O        -10.5290   -5.7630   16.1600 O.2   106  VAL106     -0.2718
     38  CB        -9.6960   -8.7840   15.2090 C.3   106  VAL106      0.0266
     39  CG1       -8.8740   -9.4060   14.0930 C.3   106  VAL106      0.0020
     40  CG2       -8.7810   -8.2400   16.2950 C.3   106  VAL106      0.0020
     41  N        -12.4080   -7.0290   16.2400 N.am  107  THR107     -0.1939
     42  CA       -13.0440   -6.1790   17.2420 C.3   107  THR107      0.2028
     43  C        -13.3720   -6.9980   18.4920 C.2   107  THR107      0.2642
     44  O        -13.7980   -8.1510   18.3670 O.2   107  THR107     -0.2714
     45  CB       -14.3070   -5.5190   16.6270 C.3   107  THR107      0.1808
     46  OG1      -13.9260   -4.6810   15.5210 O.3   107  THR107     -0.2208
     47  CG2      -15.0460   -4.7020   17.6500 C.3   107  THR107      0.0379
     48  N        -13.2010   -6.4080   19.6810 N.am  108  VAL108     -0.1977
     49  CA       -13.5120   -7.1200   20.9260 C.3   108  VAL108      0.1596
     50  C        -14.6480   -6.4990   21.7740 C.2   108  VAL108      0.2287
     51  O        -14.4760   -5.4420   22.3990 O.2   108  VAL108     -0.2864
     52  CB       -12.2230   -7.4120   21.7330 C.3   108  VAL108      0.0276
     53  CG1      -12.5140   -8.0960   23.1130 C.3   108  VAL108      0.0022
     54  CG2      -11.2890   -8.2270   20.8870 C.3   108  VAL108      0.0022
     55  N        -16.9300  -13.1080   11.3870 N.3   179  VAL179     -0.1245
     56  CA       -16.5940  -14.1490   12.3720 C.3   179  VAL179      0.1561
     57  C        -16.8630  -13.7370   13.8270 C.2   179  VAL179      0.2260
     58  O        -16.2260  -12.8380   14.3720 O.2   179  VAL179     -0.2867
     59  CB       -15.1160  -14.6910   12.1550 C.3   179  VAL179      0.0252
     60  CG1      -14.1180  -13.9510   13.0310 C.3   179  VAL179      0.0019
     61  CG2      -15.0140  -16.2310   12.3450 C.3   179  VAL179      0.0019
     62  N        -16.6420  -14.9550   17.5250 N.3   181  TYR181     -0.1241
     63  CA       -16.3300  -16.0060   18.4530 C.3   181  TYR181      0.1605
     64  C        -17.1110  -15.6630   19.6890 C.2   181  TYR181      0.2264
     65  O        -16.9100  -14.6060   20.2410 O.2   181  TYR181     -0.2867
     66  CB       -14.8280  -16.0880   18.7360 C.3   181  TYR181      0.0534
     67  CG       -14.0350  -16.7870   17.6510 C.ar  181  TYR181     -0.0201
     68  CD1      -13.9790  -18.1480   17.5700 C.ar  181  TYR181     -0.0009
     69  CD2      -13.2930  -16.0660   16.7530 C.ar  181  TYR181     -0.0009
     70  CE1      -13.2420  -18.7720   16.5790 C.ar  181  TYR181      0.0417
     71  CE2      -12.4750  -16.6750   15.8220 C.ar  181  TYR181      0.0417
     72  CZ       -12.4680  -18.0250   15.7010 C.ar  181  TYR181      0.1957
     73  OH       -11.7070  -18.6160   14.6690 O.3   181  TYR181     -0.2866
     74  N        -15.9750  -11.7740   20.3270 N.3   188  TYR188     -0.1227
     75  CA       -14.7690  -11.4670   19.5440 C.3   188  TYR188      0.1736
     76  C        -15.1550  -11.4690   18.0350 C.2   188  TYR188      0.2595
     77  O        -15.3050  -12.5490   17.4410 O.2   188  TYR188     -0.2718
     78  CB       -13.6610  -12.5010   19.7590 C.3   188  TYR188      0.0548
     79  CG       -13.4350  -12.9380   21.1870 C.ar  188  TYR188     -0.0200
     80  CD1      -13.3260  -12.0240   22.1910 C.ar  188  TYR188     -0.0009
     81  CD2      -13.2540  -14.2920   21.5060 C.ar  188  TYR188     -0.0009
     82  CE1      -13.1010  -12.4270   23.5160 C.ar  188  TYR188      0.0417
     83  CE2      -13.1380  -14.7220   22.8200 C.ar  188  TYR188      0.0417
     84  CZ       -13.0150  -13.7740   23.8260 C.ar  188  TYR188      0.1957
     85  OH       -12.7320  -14.1570   25.1220 O.3   188  TYR188     -0.2866
     86  N        -15.3570  -10.2780   17.4460 N.am  189  VAL189     -0.1966
     87  CA       -15.6770  -10.1570   16.0150 C.3   189  VAL189      0.1727
     88  C        -14.4170   -9.8660   15.2080 C.2   189  VAL189      0.2616
     89  O        -13.6060   -9.0460   15.6280 O.2   189  VAL189     -0.2715
     90  CB       -16.7110   -9.0510   15.7210 C.3   189  VAL189      0.0290
     91  CG1      -16.8470   -8.8550   14.2080 C.3   189  VAL189      0.0023
     92  CG2      -18.0760   -9.3870   16.3290 C.3   189  VAL189      0.0023
     93  N        -14.2510  -10.5300   14.0670 N.am  190  GLY190     -0.1955
     94  CA       -13.1440  -10.3380   13.1480 C.3   190  GLY190      0.1869
     95  C        -13.6810  -10.4260   11.7260 C.2   190  GLY190      0.2309
     96  O        -14.7120  -11.0740   11.4640 O.2   190  GLY190     -0.2863
     97  N         -4.2490   -8.3790   23.0750 N.3   227  PHE227     -0.1241
     98  CA        -5.2810   -8.7760   23.9930 C.3   227  PHE227      0.1605
     99  C         -4.6600   -9.8460   24.8530 C.2   227  PHE227      0.2264
    100  O         -4.2990  -10.8820   24.3400 O.2   227  PHE227     -0.2867
    101  CB        -6.4130   -9.3970   23.2190 C.3   227  PHE227      0.0534
    102  CG        -6.9300   -8.5550   22.1030 C.ar  227  PHE227     -0.0203
    103  CD1       -7.6340   -7.3850   22.3700 C.ar  227  PHE227     -0.0042
    104  CD2       -6.8450   -9.0040   20.7940 C.ar  227  PHE227     -0.0042
    105  CE1       -8.1890   -6.6410   21.3540 C.ar  227  PHE227     -0.0003
    106  CE2       -7.3520   -8.2520   19.7710 C.ar  227  PHE227     -0.0003
    107  CZ        -8.0320   -7.0650   20.0460 C.ar  227  PHE227     -0.0000
    108  N         -5.3270  -12.4450   26.6070 N.3   229  TRP229     -0.1241
    109  CA        -6.4920  -13.3140   26.8400 C.3   229  TRP229      0.1605
    110  C         -6.2060  -14.7400   27.2740 C.2   229  TRP229      0.2264
    111  O         -5.3570  -15.3860   26.7170 O.2   229  TRP229     -0.2867
    112  CB        -7.4390  -13.2630   25.5990 C.3   229  TRP229      0.0550
    113  CG        -8.5240  -14.3050   25.4940 C.ar  229  TRP229      0.0003
    114  CD1       -9.8560  -14.1400   25.8030 C.ar  229  TRP229      0.0946
    115  CD2       -8.4250  -15.5800   24.8600 C.ar  229  TRP229      0.0152
    116  NE1      -10.5830  -15.2360   25.4180 N.ar  229  TRP229     -0.2442
    117  CE2       -9.7270  -16.1580   24.8720 C.ar  229  TRP229      0.0810
    118  CE3       -7.3630  -16.3240   24.3420 C.ar  229  TRP229      0.0012
    119  CZ2       -9.9820  -17.4620   24.3960 C.ar  229  TRP229      0.0191
    120  CZ3       -7.6330  -17.5940   23.8360 C.ar  229  TRP229      0.0001
    121  CH2       -8.9320  -18.1460   23.8720 C.ar  229  TRP229      0.0015
    122  N         -2.5320  -11.9570   22.3350 N.3   234  LEU234     -0.1231
    123  CA        -2.9600  -11.9030   20.9600 C.3   234  LEU234      0.1693
    124  C         -2.7430  -10.5690   20.2920 C.2   234  LEU234      0.2592
    125  O         -3.2480   -9.5400   20.7320 O.2   234  LEU234     -0.2718
    126  CB        -4.4380  -12.3350   20.8090 C.3   234  LEU234      0.0284
    127  CG        -4.9580  -13.6720   21.3890 C.3   234  LEU234      0.0019
    128  CD1       -6.4850  -13.6660   21.4670 C.3   234  LEU234      0.0001
    129  CD2       -4.4400  -14.9320   20.6800 C.3   234  LEU234      0.0001
    130  N         -1.9680  -10.5900   19.2240 N.am  235  HIS235     -0.1962
    131  CA        -1.7660   -9.4240   18.4090 C.3   235  HIS235      0.1772
    132  C         -2.5910   -9.8590   17.2260 C.2   235  HIS235      0.2462
    133  O         -3.0810  -10.9940   17.1860 O.2   235  HIS235     -0.2730
    134  CB        -0.3130   -9.2990   18.0010 C.3   235  HIS235      0.0785
    135  CG         0.6130   -9.1200   19.1550 C.ar  235  HIS235      0.0821
    136  ND1        1.2760   -7.9370   19.3980 N.ar  235  HIS235     -0.2267
    137  CD2        0.9540   -9.9600   20.1600 C.ar  235  HIS235      0.1154
    138  CE1        1.9870   -8.0570   20.5050 C.ar  235  HIS235      0.1986
    139  NE2        1.8190   -9.2800   20.9820 N.ar  235  HIS235     -0.2212
    140  N         -2.7860   -8.9720   16.2590 N.am  236  PRO236     -0.2727
    141  CA        -3.6120   -9.2550   15.0820 C.3   236  PRO236      0.1402
    142  C         -2.9560  -10.2250   14.0800 C.2   236  PRO236      0.2269
    143  O         -3.6500  -10.9060   13.2900 O.2   236  PRO236     -0.2865
    144  CB        -3.7540   -7.8730   14.4390 C.3   236  PRO236      0.0296
    145  CG        -2.5860   -7.0520   15.0190 C.3   236  PRO236      0.0237
    146  CD        -2.4290   -7.5510   16.3920 C.3   236  PRO236      0.0939
    147  N         -1.1880  -17.1670   12.4260 N.3   318  TYR318     -0.1241
    148  CA        -2.6420  -17.4390   12.4310 C.3   318  TYR318      0.1605
    149  C         -3.0230  -18.3310   11.2060 C.2   318  TYR318      0.2264
    150  O         -2.1970  -18.5840   10.3300 O.2   318  TYR318     -0.2867
    151  CB        -3.4670  -16.1170   12.4380 C.3   318  TYR318      0.0534
    152  CG        -3.5190  -15.4400   13.7910 C.ar  318  TYR318     -0.0201
    153  CD1       -3.9480  -16.1390   14.9180 C.ar  318  TYR318     -0.0009
    154  CD2       -3.0890  -14.1490   13.9540 C.ar  318  TYR318     -0.0009
    155  CE1       -3.9280  -15.5850   16.1580 C.ar  318  TYR318      0.0417
    156  CE2       -3.1260  -13.5750   15.1890 C.ar  318  TYR318      0.0417
    157  CZ        -3.5010  -14.3150   16.2810 C.ar  318  TYR318      0.1957
    158  OH        -3.4720  -13.7680   17.5130 O.3   318  TYR318     -0.2866
@<TRIPOS>BOND
     1    24    23    1
     2    23    22    1
     3    33    32    1
     4    32    31    1
     5    22    21    1
     6    31    30    1
     7    21    20    1
     8    27    26    1
     9    27    28    2
    10    26    25    1
    11    26    29    1
    12   150   149    2
    13    30    29    1
    14    20    17    1
    15    18    17    1
    16    18    19    2
    17   149   148    1
    18    17    16    1
    19    55    56    1
    20    96    95    2
    21    95    94    1
    22    59    61    1
    23    59    56    1
    24    59    60    1
    25    56    57    1
    26   147   148    1
    27   148   151    1
    28   151   152    1
    29    16    10   am
    30    94    93    1
    31    11    10    2
    32   143   142    2
    33    34    35    1
    34    10     9    1
    35   152   154   ar
    36   152   153   ar
    37    57    58    2
    38   154   156   ar
    39    93    88   am
    40   142   141    1
    41    39    38    1
    42    91    90    1
    43   144   145    1
    44   144   141    1
    45    35    38    1
    46    35    36    1
    47    73    72    1
    48   153   155   ar
    49     9     8    1
    50     9    12    1
    51   145   146    1
    52   141   140    1
    53   156   157   ar
    54    88    89    2
    55    88    87    1
    56    38    40    1
    57    46    45    1
    58    72    71   ar
    59    72    70   ar
    60    90    87    1
    61    90    92    1
    62    36    37    2
    63    36    41   am
    64    71    69   ar
    65    12    13    1
    66    87    86    1
    67   155   157   ar
    68    41    42    1
    69   140   146    1
    70   140   132   am
    71   157   158    1
    72    70    68   ar
    73    45    42    1
    74    45    47    1
    75    69    67   ar
    76   133   132    2
    77   132   131    1
    78    42    43    1
    79    15    13    1
    80    13    14    1
    81    77    76    2
    82    86    76   am
    83    62    63    1
    84    68    67   ar
    85    67    66    1
    86   134   131    1
    87   134   135    1
    88    76    75    1
    89    44    43    2
    90   131   130    1
    91    63    66    1
    92    63    64    1
    93    43    48   am
    94   135   136   ar
    95   135   137   ar
    96   130   124   am
    97   136   138   ar
    98    75    78    1
    99    75    74    1
   100    48    49    1
   101    64    65    2
   102    78    79    1
   103   106   107   ar
   104   106   104   ar
   105   107   105   ar
   106   137   139   ar
   107   124   125    2
   108   124   123    1
   109     5     2    1
   110     5     6    1
   111   138   139   ar
   112   129   127    1
   113   104   102   ar
   114   126   123    1
   115   126   127    1
   116    54    52    1
   117     2     3    1
   118     2     1    1
   119    49    52    1
   120    49    50    1
   121   123   122    1
   122    79    81   ar
   123    79    80   ar
   124     3     4    2
   125   105   103   ar
   126   127   128    1
   127    81    83   ar
   128     6     7    1
   129    52    53    1
   130    50    51    2
   131     1     7    1
   132   102   103   ar
   133   102   101    1
   134    80    82   ar
   135    83    84   ar
   136    97    98    1
   137   101    98    1
   138    82    84   ar
   139    84    85    1
   140   120   121   ar
   141   120   118   ar
   142   121   119   ar
   143    98    99    1
   144   100    99    2
   145   118   115   ar
   146   119   117   ar
   147   115   117   ar
   148   115   113   ar
   149   117   116   ar
   150   116   114   ar
   151   113   112    1
   152   113   114   ar
   153   112   109    1
   154   108   109    1
   155   111   110    2
   156   109   110    1
