@<TRIPOS>MOLECULE
tmp/2jlgB00.pdb
 151 142 0 0 0
SMALL
GASTEIGER

@<TRIPOS>ATOM
      1  N         -1.1980   41.4690   81.5650 N.3   206  GLN206     -0.1245
      2  CA        -0.8490   40.5250   82.6040 C.3   206  GLN206      0.1566
      3  C         -1.4770   39.2280   82.1690 C.2   206  GLN206      0.2260
      4  O         -2.6840   39.0290   82.2950 O.2   206  GLN206     -0.2867
      5  CB        -1.3850   40.9420   83.9610 C.3   206  GLN206      0.0367
      6  CG        -0.4240   40.5890   85.0650 C.3   206  GLN206      0.0905
      7  CD        -1.0980   40.0230   86.2950 C.2   206  GLN206      0.2608
      8  OE1       -2.0260   40.6200   86.8460 O.2   206  GLN206     -0.2717
      9  NE2       -0.6190   38.8640   86.7460 N.am  206  GLN206     -0.0878
     10  N        -11.2480   35.9620   87.6920 N.3   223  LYS223     -0.1245
     11  CA       -11.1750   37.0260   88.7070 C.3   223  LYS223      0.1561
     12  C        -11.7140   38.3500   88.1810 C.2   223  LYS223      0.2260
     13  O        -11.4650   38.7220   87.0320 O.2   223  LYS223     -0.2867
     14  CB        -9.7400   37.2310   89.1730 C.3   223  LYS223      0.0271
     15  CG        -9.5140   38.5020   89.9610 C.3   223  LYS223      0.0035
     16  CD        -9.6250   38.2300   91.4420 C.3   223  LYS223      0.0206
     17  CE        -8.6890   39.1160   92.2460 C.3   223  LYS223      0.1093
     18  NZ        -8.6550   38.7060   93.6850 N.3   223  LYS223     -0.1314
     19  N        -11.6310   42.0540   87.7360 N.3   225  ARG225     -0.1245
     20  CA       -10.7500   43.2230   87.8130 C.3   225  ARG225      0.1563
     21  C        -11.5280   44.5310   87.6800 C.2   225  ARG225      0.2260
     22  O        -12.1270   44.8090   86.6360 O.2   225  ARG225     -0.2867
     23  CB        -9.6690   43.1530   86.7400 C.3   225  ARG225      0.0307
     24  CG        -8.6050   42.1280   87.0370 C.3   225  ARG225      0.0489
     25  CD        -8.0170   42.3530   88.4140 C.3   225  ARG225      0.2205
     26  NE        -7.2860   41.1730   88.8540 N.pl3 225  ARG225     -0.0865
     27  CZ        -6.5430   41.1260   89.9530 C.cat 225  ARG225      0.5346
     28  NH1       -6.4360   42.1970   90.7210 N.pl3 225  ARG225      0.1354
     29  NH2       -5.8960   40.0180   90.2810 N.pl3 225  ARG225      0.1354
     30  N         -6.0000   40.3060   81.6990 N.3   268  ARG268     -0.1245
     31  CA        -6.0090   41.5350   82.4780 C.3   268  ARG268      0.1563
     32  C         -5.1120   42.5930   81.8450 C.2   268  ARG268      0.2260
     33  O         -4.1090   42.2640   81.2160 O.2   268  ARG268     -0.2867
     34  CB        -5.5100   41.2500   83.8760 C.3   268  ARG268      0.0307
     35  CG        -5.5240   42.4420   84.7830 C.3   268  ARG268      0.0489
     36  CD        -4.6360   42.1800   85.9520 C.3   268  ARG268      0.2205
     37  NE        -4.9280   43.0880   87.0370 N.pl3 268  ARG268     -0.0865
     38  CZ        -4.5790   42.8610   88.2970 C.cat 268  ARG268      0.5346
     39  NH1       -3.9220   41.7530   88.6200 N.pl3 268  ARG268      0.1354
     40  NH2       -4.8920   43.7400   89.2380 N.pl3 268  ARG268      0.1354
     41  N         -2.9430   46.1500   82.6420 N.3   270  ARG270     -0.1245
     42  CA        -2.3700   47.1250   83.5640 C.3   270  ARG270      0.1563
     43  C         -2.0700   48.3990   82.8090 C.2   270  ARG270      0.2260
     44  O         -1.4710   48.3680   81.7300 O.2   270  ARG270     -0.2867
     45  CB        -1.0670   46.6030   84.1800 C.3   270  ARG270      0.0307
     46  CG        -1.0670   45.1090   84.4390 C.3   270  ARG270      0.0489
     47  CD        -1.7570   44.7430   85.7500 C.3   270  ARG270      0.2205
     48  NE        -0.7980   44.6830   86.8490 N.pl3 270  ARG270     -0.0865
     49  CZ        -1.1260   44.5550   88.1320 C.cat 270  ARG270      0.5346
     50  NH1       -2.3970   44.4830   88.4880 N.pl3 270  ARG270      0.1354
     51  NH2       -0.1800   44.5070   89.0630 N.pl3 270  ARG270      0.1354
     52  N          1.8790   42.0970  101.7490 N.3   324  ASP324     -0.1225
     53  CA         1.7410   42.6290  100.3960 C.3   324  ASP324      0.1805
     54  C          0.7310   43.7790  100.3220 C.2   324  ASP324      0.2598
     55  O         -0.1490   43.9270  101.1810 O.2   324  ASP324     -0.2718
     56  CB         1.4050   41.5360   99.3750 C.3   324  ASP324      0.1424
     57  CG        -0.0560   41.1100   99.4160 C.2   324  ASP324      0.3668
     58  OD1       -0.6430   40.9280   98.3250 O.co2 324  ASP324     -0.2456
     59  OD2       -0.6140   40.9460  100.5260 O.co2 324  ASP324     -0.2456
     60  N          0.8690   44.5980   99.2880 N.am  325  VAL325     -0.1966
     61  CA         0.0170   45.7690   99.1610 C.3   325  VAL325      0.1727
     62  C         -0.8960   45.7220   97.9390 C.2   325  VAL325      0.2617
     63  O         -0.5110   45.2700   96.8590 O.2   325  VAL325     -0.2715
     64  CB         0.8490   47.0600   99.1400 C.3   325  VAL325      0.0290
     65  CG1       -0.0460   48.2710   99.2640 C.3   325  VAL325      0.0023
     66  CG2        1.8570   47.0440  100.2690 C.3   325  VAL325      0.0023
     67  N         -2.1130   46.2020   98.1360 N.am  326  SER326     -0.1936
     68  CA        -3.1210   46.2520   97.0890 C.3   326  SER326      0.2055
     69  C         -2.9690   47.5040   96.2250 C.2   326  SER326      0.2643
     70  O         -2.9930   48.6210   96.7330 O.2   326  SER326     -0.2714
     71  CB        -4.5020   46.2840   97.7390 C.3   326  SER326      0.2130
     72  OG        -4.6140   47.4240   98.5830 O.3   326  SER326     -0.2179
     73  N         -2.8300   47.3200   94.9200 N.am  327  ASP327     -0.1957
     74  CA        -2.8290   48.4540   94.0110 C.3   327  ASP327      0.1840
     75  C         -1.8770   49.5680   94.4890 C.2   327  ASP327      0.2622
     76  O         -2.1890   50.7620   94.4470 O.2   327  ASP327     -0.2715
     77  CB        -4.2540   48.9760   93.8530 C.3   327  ASP327      0.1450
     78  CG        -4.4850   49.6230   92.5210 C.2   327  ASP327      0.3671
     79  OD1       -3.4900   49.8340   91.7970 O.co2 327  ASP327     -0.2456
     80  OD2       -5.6590   49.9280   92.2080 O.co2 327  ASP327     -0.2456
     81  N         -0.7010   49.1500   94.9270 N.am  328  HIS328     -0.1959
     82  CA         0.2790   50.0460   95.4860 C.3   328  HIS328      0.1787
     83  C          0.3980   51.3680   94.7520 C.2   328  HIS328      0.2620
     84  O          0.4620   52.4320   95.3640 O.2   328  HIS328     -0.2715
     85  CB         1.6530   49.3800   95.4920 C.3   328  HIS328      0.0785
     86  CG         2.7730   50.3470   95.7090 C.ar  328  HIS328      0.0821
     87  ND1        3.1600   50.7640   96.9630 N.ar  328  HIS328     -0.2267
     88  CD2        3.5590   51.0110   94.8330 C.ar  328  HIS328      0.1154
     89  CE1        4.1520   51.6270   96.8490 C.ar  328  HIS328      0.1986
     90  NE2        4.4130   51.7940   95.5670 N.ar  328  HIS328     -0.2212
     91  N          0.4600   51.3010   93.4360 N.am  329  ASP329     -0.1971
     92  CA         0.8050   52.4780   92.6480 C.3   329  ASP329      0.1709
     93  C         -0.2720   53.5480   92.6460 C.2   329  ASP329      0.2293
     94  O          0.0190   54.7360   92.7280 O.2   329  ASP329     -0.2864
     95  CB         1.1290   52.0830   91.2170 C.3   329  ASP329      0.1436
     96  CG         2.5620   51.6720   91.0510 C.2   329  ASP329      0.3671
     97  OD1        3.2580   51.5510   92.0800 O.co2 329  ASP329     -0.2456
     98  OD2        2.9870   51.4850   89.8920 O.co2 329  ASP329     -0.2456
     99  N          6.7610   47.2880   97.3670 N.3   453  ASP453     -0.1225
    100  CA         5.6990   46.7640   98.2140 C.3   453  ASP453      0.1805
    101  C          5.8950   45.3070   98.6200 C.2   453  ASP453      0.2597
    102  O          5.3220   44.8580   99.6130 O.2   453  ASP453     -0.2718
    103  CB         4.3360   46.9310   97.5300 C.3   453  ASP453      0.1424
    104  CG         4.2430   46.1800   96.2050 C.2   453  ASP453      0.3668
    105  OD1        3.3150   45.3530   96.0390 O.co2 453  ASP453     -0.2456
    106  OD2        5.1000   46.4170   95.3270 O.co2 453  ASP453     -0.2456
    107  N          6.6840   44.5610   97.8570 N.am  454  ASP454     -0.1974
    108  CA         6.9510   43.1770   98.2130 C.3   454  ASP454      0.1709
    109  C          7.9250   43.1700   99.3800 C.2   454  ASP454      0.2293
    110  O          9.0220   43.7210   99.2970 O.2   454  ASP454     -0.2864
    111  CB         7.5110   42.3950   97.0170 C.3   454  ASP454      0.1436
    112  CG         7.3610   40.8710   97.1730 C.2   454  ASP454      0.3671
    113  OD1        6.5730   40.4200   98.0530 O.co2 454  ASP454     -0.2456
    114  OD2        8.0350   40.1290   96.4030 O.co2 454  ASP454     -0.2456
    115  N         10.1760   38.2940   95.9090 N.3   497  LEU497     -0.1245
    116  CA        10.8510   38.5070   94.6350 C.3   497  LEU497      0.1561
    117  C         10.9630   37.2690   93.7550 C.2   497  LEU497      0.2260
    118  O         11.9670   37.0820   93.0640 O.2   497  LEU497     -0.2867
    119  CB        12.2380   39.0990   94.8630 C.3   497  LEU497      0.0270
    120  CG        12.4750   40.5740   94.5310 C.3   497  LEU497      0.0019
    121  CD1       11.2670   41.3940   94.8570 C.3   497  LEU497      0.0001
    122  CD2       13.7010   41.0920   95.2730 C.3   497  LEU497      0.0001
    123  N          4.2060   37.7560   78.0710 N.3   529  GLU529     -0.1245
    124  CA         3.5680   39.0570   78.0370 C.3   529  GLU529      0.1567
    125  C          3.5070   39.6400   76.6200 C.2   529  GLU529      0.2260
    126  O          2.5980   40.4140   76.2870 O.2   529  GLU529     -0.2867
    127  CB         4.3360   39.9870   78.9610 C.3   529  GLU529      0.0388
    128  CG         3.5900   41.2350   79.3780 C.3   529  GLU529      0.1160
    129  CD         4.1290   41.8210   80.6850 C.2   529  GLU529      0.3649
    130  OE1        4.2750   43.0680   80.7650 O.co2 529  GLU529     -0.2457
    131  OE2        4.4080   41.0300   81.6260 O.co2 529  GLU529     -0.2457
    132  N         12.6810   42.3920   80.8810 N.3   626  ASN626     -0.1240
    133  CA        11.8470   42.9840   81.9200 C.3   626  ASN626      0.1653
    134  C         12.4670   42.8760   83.3090 C.2   626  ASN626      0.2266
    135  O         12.5920   43.8720   84.0180 O.2   626  ASN626     -0.2867
    136  CB        10.4750   42.3240   81.9520 C.3   626  ASN626      0.1155
    137  CG         9.3640   43.2790   81.5920 C.2   626  ASN626      0.2627
    138  OD1        8.3780   43.3890   82.3220 O.2   626  ASN626     -0.2716
    139  ND2        9.5150   43.9820   80.4670 N.am  626  ASN626     -0.0877
    140  N         11.6130   44.5160   87.5050 N.3   630  TYR630     -0.1241
    141  CA        10.8100   43.8450   88.5360 C.3   630  TYR630      0.1605
    142  C         11.6130   42.8410   89.3750 C.2   630  TYR630      0.2264
    143  O         11.0770   42.2150   90.2900 O.2   630  TYR630     -0.2867
    144  CB         9.5020   43.2380   87.9450 C.3   630  TYR630      0.0534
    145  CG         9.4100   41.7130   87.6970 C.ar  630  TYR630     -0.0201
    146  CD1        9.3910   40.8010   88.7570 C.ar  630  TYR630     -0.0009
    147  CD2        9.2460   41.1980   86.4050 C.ar  630  TYR630     -0.0009
    148  CE1        9.2750   39.4130   88.5370 C.ar  630  TYR630      0.0417
    149  CE2        9.1220   39.8090   86.1760 C.ar  630  TYR630      0.0417
    150  CZ         9.1400   38.9230   87.2470 C.ar  630  TYR630      0.1957
    151  OH         9.0230   37.5560   87.0360 O.3   630  TYR630     -0.2866
@<TRIPOS>BOND
     1   126   125    2
     2   125   124    1
     3   124   123    1
     4   124   127    1
     5   127   128    1
     6   128   129    1
     7   139   137   am
     8   129   130   ar
     9   129   131   ar
    10   132   133    1
    11    33    32    2
    12     1     2    1
    13   137   136    1
    14   137   138    2
    15    30    31    1
    16    44    43    2
    17    32    31    1
    18   133   136    1
    19   133   134    1
    20     3     4    2
    21     3     2    1
    22    31    34    1
    23     2     5    1
    24    41    42    1
    25    43    42    1
    26   134   135    2
    27    42    45    1
    28    34    35    1
    29     5     6    1
    30    45    46    1
    31    46    47    1
    32    35    36    1
    33     6     7    1
    34    47    48    1
    35    36    37    1
    36   149   147   ar
    37   149   150   ar
    38     7     9   am
    39     7     8    2
    40   147   145   ar
    41    22    21    2
    42    23    24    1
    43    23    20    1
    44    48    49    2
    45    13    12    2
    46   151   150    1
    47    37    38    2
    48    24    25    1
    49   150   148   ar
    50   140   141    1
    51    21    20    1
    52    10    11    1
    53   145   144    1
    54   145   146   ar
    55    19    20    1
    56   144   141    1
    57    49    50    1
    58    49    51    1
    59    12    11    1
    60    38    39    1
    61    38    40    1
    62    25    26    1
    63   141   142    1
    64   148   146   ar
    65    11    14    1
    66    26    27    2
    67    14    15    1
    68   142   143    2
    69    98    96   ar
    70    27    29    1
    71    27    28    1
    72    15    16    1
    73    96    95    1
    74    96    97   ar
    75    95    92    1
    76    16    17    1
    77    79    78   ar
    78    80    78   ar
    79    17    18    1
    80    78    77    1
    81    93    92    1
    82    93    94    2
    83    92    91    1
    84   118   117    2
    85    91    83   am
    86   117   116    1
    87    77    74    1
    88    74    75    1
    89    74    73    1
    90    76    75    2
    91    75    81   am
    92   120   121    1
    93   120   119    1
    94   120   122    1
    95   116   119    1
    96   116   115    1
    97    83    84    2
    98    83    82    1
    99    88    90   ar
   100    88    86   ar
   101    73    69   am
   102    81    82    1
   103   106   104   ar
   104    82    85    1
   105    85    86    1
   106    90    89   ar
   107    86    87   ar
   108   105   104   ar
   109   104   103    1
   110    69    70    2
   111    69    68    1
   112   114   112   ar
   113    89    87   ar
   114    63    62    2
   115   111   112    1
   116   111   108    1
   117    68    71    1
   118    68    67    1
   119   112   113   ar
   120    99   100    1
   121   103   100    1
   122    71    72    1
   123   107   108    1
   124   107   101   am
   125    62    67   am
   126    62    61    1
   127   108   109    1
   128   100   101    1
   129    58    57   ar
   130   101   102    2
   131    64    61    1
   132    64    65    1
   133    64    66    1
   134    61    60    1
   135    60    54   am
   136   110   109    2
   137    56    57    1
   138    56    53    1
   139    57    59   ar
   140    54    53    1
   141    54    55    2
   142    53    52    1
