@<TRIPOS>MOLECULE
tmp/2jlhA01.pdb
 91 85 0 0 0
SMALL
GASTEIGER

@<TRIPOS>ATOM
      1  N         30.5830  -18.5330   -9.0360 N.3    16  GLN16      -0.1245
      2  CA        30.0790  -18.9760   -7.7340 C.3    16  GLN16       0.1566
      3  C         30.2690  -20.4980   -7.5750 C.2    16  GLN16       0.2260
      4  O         29.9940  -21.2880   -8.4820 O.2    16  GLN16      -0.2867
      5  CB        28.6070  -18.5850   -7.5740 C.3    16  GLN16       0.0367
      6  CG        28.1930  -18.6370   -6.0700 C.3    16  GLN16       0.0905
      7  CD        26.7300  -18.3930   -5.8840 C.2    16  GLN16       0.2608
      8  OE1       25.8930  -19.2010   -6.2720 O.2    16  GLN16      -0.2717
      9  NE2       26.4070  -17.2490   -5.2950 N.am   16  GLN16      -0.0878
     10  N         29.0300  -22.4780   -4.7270 N.3    18  ARG18      -0.1231
     11  CA        28.1890  -22.8690   -3.5940 C.3    18  ARG18       0.1694
     12  C         27.0850  -23.7600   -4.0460 C.2    18  ARG18       0.2592
     13  O         26.5110  -23.5220   -5.1070 O.2    18  ARG18      -0.2718
     14  CB        27.5720  -21.6200   -2.9880 C.3    18  ARG18       0.0321
     15  CG        28.6270  -20.7290   -2.4180 C.3    18  ARG18       0.0489
     16  CD        28.0610  -19.8440   -1.4090 C.3    18  ARG18       0.2205
     17  NE        28.9780  -18.7810   -1.0340 N.pl3  18  ARG18      -0.0865
     18  CZ        29.4870  -18.6090    0.1830 C.cat  18  ARG18       0.5346
     19  NH1       29.2230  -19.4600    1.1700 N.pl3  18  ARG18       0.1354
     20  NH2       30.2700  -17.5730    0.4070 N.pl3  18  ARG18       0.1354
     21  N         26.7260  -24.7490   -3.2230 N.am   19  ASN19      -0.1960
     22  CA        25.5740  -25.5750   -3.5020 C.3    19  ASN19       0.1819
     23  C         24.2850  -24.9000   -3.0040 C.2    19  ASN19       0.2621
     24  O         24.3040  -23.8760   -2.3230 O.2    19  ASN19      -0.2715
     25  CB        25.7390  -27.0040   -2.9570 C.3    19  ASN19       0.1195
     26  CG        25.8100  -27.0590   -1.4570 C.2    19  ASN19       0.2630
     27  OD1       24.9150  -26.6140   -0.7490 O.2    19  ASN19      -0.2716
     28  ND2       26.8950  -27.6510   -0.9370 N.am   19  ASN19      -0.0877
     29  N         23.1580  -25.4380   -3.4300 N.am   20  MET20      -0.1963
     30  CA        21.8730  -24.8220   -3.1540 C.3    20  MET20       0.1736
     31  C         21.5420  -24.6930   -1.6780 C.2    20  MET20       0.2616
     32  O         21.1370  -23.6290   -1.2190 O.2    20  MET20      -0.2715
     33  CB        20.7650  -25.5540   -3.9010 C.3    20  MET20       0.0427
     34  CG        19.3950  -24.9650   -3.6890 C.3    20  MET20       0.0599
     35  SD        18.0740  -25.8520   -4.4910 S.3    20  MET20      -0.1393
     36  CE        18.3190  -25.4180   -6.2070 C.3    20  MET20       0.0692
     37  N         21.7490  -25.7510   -0.9020 N.am   21  ARG21      -0.1977
     38  CA        21.4940  -25.6400    0.5310 C.3    21  ARG21       0.1597
     39  C         22.3550  -24.5980    1.1890 C.2    21  ARG21       0.2287
     40  O         21.8660  -23.8240    2.0110 O.2    21  ARG21      -0.2864
     41  CB        21.6910  -26.9890    1.2450 C.3    21  ARG21       0.0334
     42  CG        21.3850  -26.9380    2.7540 C.3    21  ARG21       0.0492
     43  CD        21.3780  -28.2990    3.4040 C.3    21  ARG21       0.2205
     44  NE        20.4510  -29.2140    2.7400 N.pl3  21  ARG21      -0.0865
     45  CZ        19.1450  -29.2940    2.9910 C.cat  21  ARG21       0.5346
     46  NH1       18.5760  -28.5180    3.8840 N.pl3  21  ARG21       0.1354
     47  NH2       18.4080  -30.1760    2.3310 N.pl3  21  ARG21       0.1354
     48  N         23.6260  -21.9670   -0.2050 N.3    23  ASN23      -0.1240
     49  CA        23.1230  -20.6650   -0.6310 C.3    23  ASN23       0.1653
     50  C         21.8730  -20.2400    0.0960 C.2    23  ASN23       0.2266
     51  O         21.7500  -19.0720    0.4830 O.2    23  ASN23      -0.2867
     52  CB        22.8680  -20.6420   -2.1430 C.3    23  ASN23       0.1155
     53  CG        24.0530  -20.1570   -2.9490 C.2    23  ASN23       0.2627
     54  OD1       24.8790  -19.4050   -2.4410 O.2    23  ASN23      -0.2716
     55  ND2       24.0930  -20.5190   -4.2410 N.am   23  ASN23      -0.0877
     56  N         17.9120  -18.9940   -8.7240 N.3    57  TYR57      -0.1241
     57  CA        17.5140  -20.3060   -9.2330 C.3    57  TYR57       0.1605
     58  C         16.2000  -20.1440   -9.9840 C.2    57  TYR57       0.2264
     59  O         15.4610  -19.1600   -9.7620 O.2    57  TYR57      -0.2867
     60  CB        17.3350  -21.3460   -8.1010 C.3    57  TYR57       0.0534
     61  CG        18.6240  -21.6810   -7.3990 C.ar   57  TYR57      -0.0201
     62  CD1       18.8400  -21.3220   -6.0990 C.ar   57  TYR57      -0.0009
     63  CD2       19.6330  -22.3250   -8.0590 C.ar   57  TYR57      -0.0009
     64  CE1       20.0500  -21.6040   -5.4700 C.ar   57  TYR57       0.0417
     65  CE2       20.8300  -22.6240   -7.4250 C.ar   57  TYR57       0.0417
     66  CZ        21.0320  -22.2270   -6.1520 C.ar   57  TYR57       0.1957
     67  OH        22.2250  -22.4970   -5.4960 O.3    57  TYR57      -0.2866
     68  N         13.8410  -25.6960   -9.9180 N.3    61  GLN61      -0.1245
     69  CA        14.7390  -25.4510   -8.7840 C.3    61  GLN61       0.1566
     70  C         14.0440  -24.6810   -7.6660 C.2    61  GLN61       0.2260
     71  O         14.4280  -24.7560   -6.4940 O.2    61  GLN61      -0.2867
     72  CB        16.0110  -24.6950   -9.1960 C.3    61  GLN61       0.0367
     73  CG        16.8620  -25.3730  -10.2210 C.3    61  GLN61       0.0905
     74  CD        18.0040  -24.5070  -10.6570 C.2    61  GLN61       0.2608
     75  OE1       17.8350  -23.3110  -10.9120 O.2    61  GLN61      -0.2717
     76  NE2       19.1860  -25.0930  -10.7450 N.am   61  GLN61      -0.0878
     77  N         12.6270  -26.8370   -4.9620 N.3    64  THR64      -0.1218
     78  CA        13.7080  -27.3270   -4.1040 C.3    64  THR64       0.1862
     79  C         14.1800  -26.2540   -3.1210 C.2    64  THR64       0.2287
     80  O         14.3780  -26.5310   -1.9350 O.2    64  THR64      -0.2866
     81  CB        14.8940  -27.8230   -4.9180 C.3    64  THR64       0.1770
     82  OG1       14.4190  -28.6490   -6.0040 O.3    64  THR64      -0.2211
     83  CG2       15.8760  -28.5930   -4.0160 C.3    64  THR64       0.0375
     84  N         14.1030  -26.5070    1.0190 N.3    68  ILE68      -0.1245
     85  CA        15.3170  -26.2640    1.8260 C.3    68  ILE68       0.1561
     86  C         15.1010  -25.0900    2.7630 C.2    68  ILE68       0.2260
     87  O         15.5100  -25.1190    3.9260 O.2    68  ILE68      -0.2867
     88  CB        16.5610  -26.0470    0.9430 C.3    68  ILE68       0.0252
     89  CG1       16.9080  -27.2940    0.1550 C.3    68  ILE68       0.0019
     90  CG2       17.7630  -25.6590    1.7830 C.3    68  ILE68       0.0019
     91  CD1       17.9360  -27.0490   -0.9720 C.3    68  ILE68       0.0001
@<TRIPOS>BOND
     1    75    74    2
     2    76    74   am
     3    74    73    1
     4    73    72    1
     5    58    59    2
     6    58    57    1
     7    68    69    1
     8    57    56    1
     9    57    60    1
    10    72    69    1
    11     1     2    1
    12    69    70    1
    13     4     3    2
    14    60    61    1
    15    63    65   ar
    16    63    61   ar
    17     2     3    1
    18     2     5    1
    19    70    71    2
    20     5     6    1
    21    65    66   ar
    22    61    62   ar
    23     8     7    2
    24    36    35    1
    25    66    67    1
    26    66    64   ar
    27    62    64   ar
    28     6     7    1
    29    82    81    1
    30     7     9   am
    31    13    12    2
    32    77    78    1
    33    81    78    1
    34    81    83    1
    35    10    11    1
    36    35    34    1
    37    55    53   am
    38    78    79    1
    39    12    11    1
    40    12    21   am
    41    33    34    1
    42    33    30    1
    43    11    14    1
    44    22    21    1
    45    22    23    1
    46    22    25    1
    47    29    30    1
    48    29    23   am
    49    30    31    1
    50    79    80    2
    51    23    24    2
    52    14    15    1
    53    25    26    1
    54    53    54    2
    55    53    52    1
    56    15    16    1
    57    52    49    1
    58    31    32    2
    59    31    37   am
    60    26    28   am
    61    26    27    2
    62    16    17    1
    63    17    18    2
    64    91    89    1
    65    37    38    1
    66    49    48    1
    67    49    50    1
    68    50    51    2
    69    89    88    1
    70    18    20    1
    71    18    19    1
    72    38    39    1
    73    38    41    1
    74    88    90    1
    75    88    85    1
    76    84    85    1
    77    39    40    2
    78    41    42    1
    79    85    86    1
    80    47    45    1
    81    44    45    2
    82    44    43    1
    83    42    43    1
    84    86    87    2
    85    45    46    1
