@<TRIPOS>MOLECULE
tmp/2jlmD00.pdb
 91 90 0 0 0
SMALL
GASTEIGER

@<TRIPOS>ATOM
      1  N         48.7040    6.7230   27.9430 N.3    59  ASN59      -0.1225
      2  CA        48.0180    5.4690   27.6640 C.3    59  ASN59       0.1785
      3  C         47.7870    4.5800   28.8710 C.2    59  ASN59       0.2597
      4  O         47.2100    3.4930   28.7490 O.2    59  ASN59      -0.2718
      5  CB        48.7850    4.6820   26.6110 C.3    59  ASN59       0.1169
      6  CG        48.6670    5.2900   25.2440 C.2    59  ASN59       0.2627
      7  OD1       47.5830    5.3250   24.6640 O.2    59  ASN59      -0.2716
      8  ND2       49.7840    5.7720   24.7130 N.am   59  ASN59      -0.0877
      9  N         48.2490    5.0220   30.0320 N.am   60  ASN60      -0.1960
     10  CA        48.0750    4.2240   31.2310 C.3    60  ASN60       0.1819
     11  C         48.8230    2.8930   31.0630 C.2    60  ASN60       0.2621
     12  O         48.3770    1.8460   31.5260 O.2    60  ASN60      -0.2715
     13  CB        46.5800    3.9950   31.4850 C.3    60  ASN60       0.1195
     14  CG        46.2910    3.4630   32.8720 C.2    60  ASN60       0.2630
     15  OD1       46.7090    4.0450   33.8740 O.2    60  ASN60      -0.2716
     16  ND2       45.5590    2.3560   32.9380 N.am   60  ASN60      -0.0877
     17  N         49.9560    2.9480   30.3680 N.am   61  PHE61      -0.1974
     18  CA        50.8470    1.8020   30.2520 C.3    61  PHE61       0.1639
     19  C         51.7240    1.7020   31.4920 C.2    61  PHE61       0.2290
     20  O         52.4190    2.6610   31.8470 O.2    61  PHE61      -0.2864
     21  CB        51.7310    1.9290   29.0120 C.3    61  PHE61       0.0560
     22  CG        50.9780    1.8020   27.7120 C.ar   61  PHE61      -0.0200
     23  CD1       49.7830    1.0980   27.6510 C.ar   61  PHE61      -0.0042
     24  CD2       51.4790    2.3610   26.5570 C.ar   61  PHE61      -0.0042
     25  CE1       49.0960    0.9730   26.4560 C.ar   61  PHE61      -0.0003
     26  CE2       50.8000    2.2420   25.3550 C.ar   61  PHE61      -0.0003
     27  CZ        49.6080    1.5450   25.3060 C.ar   61  PHE61      -0.0000
     28  N         54.6290   -2.4450   28.9930 N.3    79  TRP79      -0.1241
     29  CA        54.0260   -2.7910   27.7070 C.3    79  TRP79       0.1605
     30  C         53.5660   -1.5570   26.9480 C.2    79  TRP79       0.2264
     31  O         53.5090   -0.4630   27.4940 O.2    79  TRP79      -0.2867
     32  CB        52.8930   -3.8180   27.8440 C.3    79  TRP79       0.0550
     33  CG        51.6270   -3.3020   28.4430 C.ar   79  TRP79       0.0003
     34  CD1       50.8520   -2.2810   27.9700 C.ar   79  TRP79       0.0946
     35  CD2       50.9600   -3.8030   29.6100 C.ar   79  TRP79       0.0152
     36  NE1       49.7610   -2.1020   28.7770 N.ar   79  TRP79      -0.2442
     37  CE2       49.8010   -3.0230   29.7910 C.ar   79  TRP79       0.0810
     38  CE3       51.2360   -4.8220   30.5230 C.ar   79  TRP79       0.0012
     39  CZ2       48.9220   -3.2340   30.8460 C.ar   79  TRP79       0.0191
     40  CZ3       50.3630   -5.0280   31.5690 C.ar   79  TRP79       0.0001
     41  CH2       49.2190   -4.2360   31.7240 C.ar   79  TRP79       0.0015
     42  N         42.7870   -3.6060   20.4550 N.3    89  LYS89      -0.1231
     43  CA        42.6710   -3.0000   21.7920 C.3    89  LYS89       0.1693
     44  C         43.0210   -3.9170   22.9710 C.2    89  LYS89       0.2592
     45  O         43.4600   -3.4450   24.0220 O.2    89  LYS89      -0.2718
     46  CB        41.2650   -2.4300   21.9970 C.3    89  LYS89       0.0285
     47  CG        40.1640   -3.4620   21.8450 C.3    89  LYS89       0.0035
     48  CD        38.8150   -2.7980   21.6720 C.3    89  LYS89       0.0206
     49  CE        38.2470   -2.3310   22.9930 C.3    89  LYS89       0.1093
     50  NZ        36.8530   -1.8310   22.8170 N.3    89  LYS89      -0.1314
     51  N         42.8280   -5.2210   22.8080 N.am   90  TYR90      -0.1976
     52  CA        43.0400   -6.1400   23.9230 C.3    90  TYR90       0.1639
     53  C         44.3990   -6.8290   23.8670 C.2    90  TYR90       0.2290
     54  O         44.6640   -7.7630   24.6240 O.2    90  TYR90      -0.2864
     55  CB        41.9230   -7.1760   23.9930 C.3    90  TYR90       0.0560
     56  CG        40.5550   -6.5830   24.2330 C.ar   90  TYR90      -0.0198
     57  CD1       40.2520   -5.9400   25.4290 C.ar   90  TYR90      -0.0009
     58  CD2       39.5650   -6.6660   23.2590 C.ar   90  TYR90      -0.0009
     59  CE1       38.9900   -5.3890   25.6450 C.ar   90  TYR90       0.0417
     60  CE2       38.3110   -6.1340   23.4640 C.ar   90  TYR90       0.0417
     61  CZ        38.0280   -5.4960   24.6550 C.ar   90  TYR90       0.1957
     62  OH        36.7740   -4.9730   24.8450 O.3    90  TYR90      -0.2866
     63  N         48.5800   -6.2780   24.0150 N.3    92  VAL92      -0.1245
     64  CA        49.7000   -5.3930   24.2940 C.3    92  VAL92       0.1561
     65  C         50.9800   -6.1350   23.9640 C.2    92  VAL92       0.2260
     66  O         50.9980   -7.3650   23.9030 O.2    92  VAL92      -0.2867
     67  CB        49.7120   -4.9400   25.7650 C.3    92  VAL92       0.0252
     68  CG1       48.3890   -4.2700   26.1150 C.3    92  VAL92       0.0019
     69  CG2       49.9460   -6.1250   26.6910 C.3    92  VAL92       0.0019
     70  N         44.2000   -5.3200   33.9440 N.3   122  SER122     -0.1202
     71  CA        43.9740   -4.2950   32.9290 C.3   122  SER122      0.2020
     72  C         43.1150   -4.8010   31.7680 C.2   122  SER122      0.2619
     73  O         42.9920   -4.1380   30.7300 O.2   122  SER122     -0.2717
     74  CB        45.3080   -3.7320   32.4410 C.3   122  SER122      0.2103
     75  OG        46.0990   -3.3080   33.5430 O.3   122  SER122     -0.2182
     76  N         42.5260   -5.9780   31.9690 N.am  123  GLU123     -0.1965
     77  CA        41.6170   -6.6020   31.0080 C.3   123  GLU123      0.1733
     78  C         42.2910   -6.8760   29.6680 C.2   123  GLU123      0.2616
     79  O         41.6420   -6.8580   28.6230 O.2   123  GLU123     -0.2715
     80  CB        40.3630   -5.7500   30.8150 C.3   123  GLU123      0.0429
     81  CG        39.5340   -5.5790   32.0750 C.3   123  GLU123      0.1163
     82  CD        38.9440   -6.8870   32.5700 C.2   123  GLU123      0.3649
     83  OE1       39.4660   -7.4320   33.5660 O.co2 123  GLU123     -0.2457
     84  OE2       37.9640   -7.3730   31.9620 O.co2 123  GLU123     -0.2457
     85  N         43.5980   -7.1140   29.7180 N.am  124  VAL124     -0.1977
     86  CA        44.3630   -7.5420   28.5590 C.3   124  VAL124      0.1596
     87  C         43.9330   -8.9430   28.1760 C.2   124  VAL124      0.2287
     88  O         43.7030   -9.7750   29.0430 O.2   124  VAL124     -0.2864
     89  CB        45.8810   -7.5600   28.8560 C.3   124  VAL124      0.0276
     90  CG1       46.6420   -8.2640   27.7270 C.3   124  VAL124      0.0022
     91  CG2       46.4060   -6.1320   29.0430 C.3   124  VAL124      0.0022
@<TRIPOS>BOND
     1    42    43    1
     2    48    47    1
     3    48    49    1
     4    43    46    1
     5    43    44    1
     6    47    46    1
     7    51    44   am
     8    51    52    1
     9    50    49    1
    10    44    45    2
    11    58    60   ar
    12    58    56   ar
    13    60    61   ar
    14    53    52    1
    15    53    54    2
    16    66    65    2
    17    52    55    1
    18    65    64    1
    19    55    56    1
    20    63    64    1
    21    56    57   ar
    22    64    67    1
    23    61    62    1
    24    61    59   ar
    25     7     6    2
    26     8     6   am
    27     6     5    1
    28    27    26   ar
    29    27    25   ar
    30    26    24   ar
    31    57    59   ar
    32    67    68    1
    33    67    69    1
    34    25    23   ar
    35    24    22   ar
    36     5     2    1
    37    30    31    2
    38    30    29    1
    39    23    22   ar
    40     2     1    1
    41     2     3    1
    42    29    32    1
    43    29    28    1
    44    22    21    1
    45    90    89    1
    46    32    33    1
    47    34    33   ar
    48    34    36   ar
    49    87    86    1
    50    87    88    2
    51    33    35   ar
    52    86    89    1
    53    86    85    1
    54    79    78    2
    55     4     3    2
    56    36    37   ar
    57    89    91    1
    58     3     9   am
    59    21    18    1
    60    35    37   ar
    61    35    38   ar
    62    78    85   am
    63    78    77    1
    64    37    39   ar
    65     9    10    1
    66    18    17    1
    67    18    19    1
    68    17    11   am
    69    38    40   ar
    70    73    72    2
    71    80    77    1
    72    80    81    1
    73    39    41   ar
    74    77    76    1
    75    11    10    1
    76    11    12    2
    77    10    13    1
    78    13    14    1
    79    19    20    2
    80    40    41   ar
    81    72    76   am
    82    72    71    1
    83    84    82   ar
    84    81    82    1
    85    74    71    1
    86    74    75    1
    87    82    83   ar
    88    14    16   am
    89    14    15    2
    90    71    70    1
