@<TRIPOS>MOLECULE
tmp/2jlvB00.pdb
 165 154 0 0 0
SMALL
GASTEIGER

@<TRIPOS>ATOM
      1  N         44.1690  -10.9290   -3.8630 N.3    28  PRO28      -0.2102
      2  CA        43.6600  -10.9340   -2.4870 C.3    28  PRO28       0.1504
      3  C         44.3900   -9.9570   -1.5830 C.2    28  PRO28       0.2576
      4  O         45.6150   -9.7940   -1.6750 O.2    28  PRO28      -0.2718
      5  CB        43.8680  -12.3930   -2.0280 C.3    28  PRO28       0.0282
      6  CG        43.8760  -13.1830   -3.3040 C.3    28  PRO28       0.0208
      7  CD        44.6150  -12.2820   -4.2670 C.3    28  PRO28       0.0893
      8  N         43.6130   -9.3010   -0.7300 N.am   29  GLY29      -0.1943
      9  CA        44.1040   -8.2580    0.1680 C.3    29  GLY29       0.2014
     10  C         44.4050   -6.9220   -0.4900 C.2    29  GLY29       0.2639
     11  O         44.9650   -6.0560    0.1590 O.2    29  GLY29      -0.2714
     12  N         44.0280   -6.7520   -1.7610 N.am   30  ALA30      -0.1963
     13  CA        44.2620   -5.4930   -2.4930 C.3    30  ALA30       0.1728
     14  C         43.4020   -4.3250   -2.0080 C.2    30  ALA30       0.2617
     15  O         43.7820   -3.1670   -2.1800 O.2    30  ALA30      -0.2715
     16  CB        44.0750   -5.6790   -3.9890 C.3    30  ALA30       0.0334
     17  N         42.2550   -4.6200   -1.4020 N.am   31  GLY31      -0.1940
     18  CA        41.3970   -3.5760   -0.8160 C.3    31  GLY31       0.2014
     19  C         40.0040   -3.4940   -1.4240 C.2    31  GLY31       0.2639
     20  O         39.3350   -2.4710   -1.3100 O.2    31  GLY31      -0.2714
     21  N         39.5660   -4.5790   -2.0610 N.am   32  LYS32      -0.1963
     22  CA        38.3090   -4.5960   -2.8200 C.3    32  LYS32       0.1728
     23  C         37.1020   -4.3580   -1.9240 C.2    32  LYS32       0.2617
     24  O         36.2450   -3.5250   -2.2190 O.2    32  LYS32      -0.2715
     25  CB        38.1510   -5.9220   -3.5870 C.3    32  LYS32       0.0311
     26  CG        39.1990   -6.1410   -4.6730 C.3    32  LYS32       0.0038
     27  CD        39.0100   -7.4520   -5.4480 C.3    32  LYS32       0.0206
     28  CE        39.2240   -8.6940   -4.5770 C.3    32  LYS32       0.1093
     29  NZ        40.5560   -8.7240   -3.8590 N.3    32  LYS32      -0.1314
     30  N         37.0510   -5.0840   -0.8130 N.am   33  THR33      -0.1937
     31  CA        35.9020   -5.0500    0.0960 C.3    33  THR33       0.2028
     32  C         35.9440   -3.8720    1.0900 C.2    33  THR33       0.2642
     33  O         34.9080   -3.2580    1.3740 O.2    33  THR33      -0.2714
     34  CB        35.8030   -6.3930    0.8490 C.3    33  THR33       0.1808
     35  OG1       35.7220   -7.4590   -0.1110 O.3    33  THR33      -0.2208
     36  CG2       34.5900   -6.4420    1.7620 C.3    33  THR33       0.0379
     37  N         37.1310   -3.5660    1.6160 N.am   34  LYS34      -0.1963
     38  CA        37.2390   -2.5850    2.7040 C.3    34  LYS34       0.1728
     39  C         37.7670   -1.2110    2.2930 C.2    34  LYS34       0.2616
     40  O         37.8050   -0.2850    3.1080 O.2    34  LYS34      -0.2715
     41  CB        38.0010   -3.1730    3.8960 C.3    34  LYS34       0.0311
     42  CG        37.3160   -4.4430    4.4390 C.3    34  LYS34       0.0038
     43  CD        38.0280   -5.0370    5.6250 C.3    34  LYS34       0.0206
     44  CE        37.3100   -4.7150    6.9070 C.3    34  LYS34       0.1093
     45  NZ        37.8700   -5.5270    8.0010 N.3    34  LYS34      -0.1314
     46  N         38.1410   -1.0540    1.0270 N.am   35  ARG35      -0.1977
     47  CA        38.5390    0.2680    0.5590 C.3    35  ARG35       0.1597
     48  C         37.8080    0.7320   -0.7130 C.2    35  ARG35       0.2287
     49  O         37.2890    1.8450   -0.7560 O.2    35  ARG35      -0.2864
     50  CB        40.0670    0.3810    0.4310 C.3    35  ARG35       0.0334
     51  CG        40.5360    1.8240    0.3740 C.3    35  ARG35       0.0492
     52  CD        42.0180    1.9690    0.0510 C.3    35  ARG35       0.2205
     53  NE        42.4420    1.0730   -1.0250 N.pl3  35  ARG35      -0.0865
     54  CZ        42.4210    1.3710   -2.3220 C.cat  35  ARG35       0.5346
     55  NH1       42.8420    0.4660   -3.1960 N.pl3  35  ARG35       0.1354
     56  NH2       42.0010    2.5690   -2.7390 N.pl3  35  ARG35       0.1354
     57  N         32.1310   -3.6960    8.6910 N.3    66  GLU66      -0.1245
     58  CA        33.2330   -2.9470    9.3080 C.3    66  GLU66       0.1567
     59  C         33.7110   -1.8020    8.4040 C.2    66  GLU66       0.2260
     60  O         34.0680   -0.7340    8.8920 O.2    66  GLU66      -0.2867
     61  CB        34.4000   -3.8720    9.6560 C.3    66  GLU66       0.0388
     62  CG        34.0340   -5.0150   10.5960 C.3    66  GLU66       0.1160
     63  CD        35.2210   -5.9080   10.9340 C.2    66  GLU66       0.3649
     64  OE1       35.1530   -6.6340   11.9550 O.co2  66  GLU66      -0.2457
     65  OE2       36.2190   -5.8940   10.1800 O.co2  66  GLU66      -0.2457
     66  N         30.3830   -8.4750   -4.7090 N.3   117  ASP117     -0.1225
     67  CA        31.6900   -8.9460   -4.2330 C.3   117  ASP117      0.1805
     68  C         31.7670  -10.4730   -4.3790 C.2   117  ASP117      0.2597
     69  O         30.7430  -11.1590   -4.2540 O.2   117  ASP117     -0.2718
     70  CB        31.9140   -8.5090   -2.7900 C.3   117  ASP117      0.1424
     71  CG        33.3780   -8.5760   -2.3620 C.2   117  ASP117      0.3668
     72  OD1       34.2770   -8.7690   -3.2120 O.co2 117  ASP117     -0.2456
     73  OD2       33.6170   -8.4130   -1.1440 O.co2 117  ASP117     -0.2456
     74  N         32.9760  -10.9800   -4.6610 N.am  118  GLU118     -0.1979
     75  CA        33.2550  -12.4110   -4.9260 C.3   118  GLU118      0.1602
     76  C         32.4060  -12.9250   -6.0950 C.2   118  GLU118      0.2287
     77  O         31.6760  -13.9110   -5.9720 O.2   118  GLU118     -0.2864
     78  CB        33.0790  -13.2660   -3.6570 C.3   118  GLU118      0.0415
     79  CG        33.7900  -12.7090   -2.4150 C.3   118  GLU118      0.1163
     80  CD        35.2990  -12.6500   -2.5600 C.2   118  GLU118      0.3649
     81  OE1       35.8560  -13.2860   -3.4760 O.co2 118  GLU118     -0.2457
     82  OE2       35.9450  -11.9720   -1.7410 O.co2 118  GLU118     -0.2457
     83  N         39.1610  -11.6470   -6.9230 N.3   149  ALA149     -0.1245
     84  CA        40.5660  -11.8950   -7.1790 C.3   149  ALA149      0.1562
     85  C         40.7610  -13.0890   -8.1260 C.2   149  ALA149      0.2260
     86  O         41.8650  -13.3420   -8.5890 O.2   149  ALA149     -0.2867
     87  CB        41.2980  -12.1290   -5.8690 C.3   149  ALA149      0.0290
     88  N         49.9950   -9.3560   -0.4980 N.3   162  ASN162     -0.1240
     89  CA        50.5590   -8.1290    0.1030 C.3   162  ASN162      0.1653
     90  C         51.9260   -8.3630    0.7220 C.2   162  ASN162      0.2266
     91  O         52.7420   -7.4510    0.8130 O.2   162  ASN162     -0.2867
     92  CB        49.6250   -7.5410    1.1700 C.3   162  ASN162      0.1155
     93  CG        48.3580   -6.9460    0.5810 C.2   162  ASN162      0.2627
     94  OD1       48.2930   -6.6470   -0.6050 O.2   162  ASN162     -0.2716
     95  ND2       47.3570   -6.7480    1.4240 N.am  162  ASN162     -0.0877
     96  N         37.8150  -12.2050   15.7190 N.3   231  LYS231     -0.1245
     97  CA        38.2020  -10.7980   15.7060 C.3   231  LYS231      0.1561
     98  C         38.6040  -10.3370   17.1030 C.2   231  LYS231      0.2260
     99  O         39.7910  -10.1920   17.4010 O.2   231  LYS231     -0.2867
    100  CB        37.0330   -9.9370   15.2040 C.3   231  LYS231      0.0271
    101  CG        36.5930  -10.2090   13.7640 C.3   231  LYS231      0.0035
    102  CD        37.5090   -9.5070   12.7780 C.3   231  LYS231      0.0206
    103  CE        36.9770   -9.5510   11.3630 C.3   231  LYS231      0.1093
    104  NZ        37.7840   -8.6190   10.5160 N.3   231  LYS231     -0.1314
    105  N         37.2500  -13.5380    1.2930 N.3   247  GLY247     -0.1225
    106  CA        37.1330  -12.2350    1.9550 C.3   247  GLY247      0.1811
    107  C         37.5290  -12.0600    3.4120 C.2   247  GLY247      0.2280
    108  O         37.6780  -10.9350    3.8620 O.2   247  GLY247     -0.2866
    109  N         39.3320  -11.6070    6.9440 N.3   249  ASN249     -0.1240
    110  CA        40.5620  -10.9870    7.4570 C.3   249  ASN249      0.1653
    111  C         40.8760  -11.5020    8.8740 C.2   249  ASN249      0.2266
    112  O         40.6000  -10.8270    9.8760 O.2   249  ASN249     -0.2867
    113  CB        40.4630   -9.4520    7.4180 C.3   249  ASN249      0.1155
    114  CG        40.4870   -8.8970    6.0050 C.2   249  ASN249      0.2627
    115  OD1       41.5340   -8.8620    5.3570 O.2   249  ASN249     -0.2716
    116  ND2       39.3310   -8.4450    5.5230 N.am  249  ASN249     -0.0877
    117  N         43.8060  -12.1280   10.3380 N.3   251  ARG251     -0.1245
    118  CA        45.0710  -11.6870   10.9390 C.3   251  ARG251      0.1563
    119  C         45.9070  -12.8960   11.4130 C.2   251  ARG251      0.2260
    120  O         46.4770  -12.8860   12.5090 O.2   251  ARG251     -0.2867
    121  CB        44.8040  -10.7130   12.1010 C.3   251  ARG251      0.0307
    122  CG        43.6230   -9.7440   11.8940 C.3   251  ARG251      0.0489
    123  CD        44.0880   -8.3240   11.5700 C.3   251  ARG251      0.2205
    124  NE        44.8100   -8.2350   10.2970 N.pl3 251  ARG251     -0.0865
    125  CZ        45.7560   -7.3330   10.0360 C.cat 251  ARG251      0.5346
    126  NH1       46.1030   -6.4440   10.9570 N.pl3 251  ARG251      0.1354
    127  NH2       46.3670   -7.3240    8.8570 N.pl3 251  ARG251      0.1354
    128  N         41.9210  -18.5910   -3.3020 N.3   289  GLN289     -0.1245
    129  CA        41.1040  -17.8970   -2.2960 C.3   289  GLN289      0.1566
    130  C         41.4430  -18.2710   -0.8440 C.2   289  GLN289      0.2260
    131  O         41.5090  -17.3980    0.0390 O.2   289  GLN289     -0.2867
    132  CB        39.6060  -18.1460   -2.5750 C.3   289  GLN289      0.0367
    133  CG        39.0630  -17.4260   -3.8250 C.3   289  GLN289      0.0905
    134  CD        38.9480  -15.9090   -3.6670 C.2   289  GLN289      0.2608
    135  OE1       39.0620  -15.3680   -2.5680 O.2   289  GLN289     -0.2717
    136  NE2       38.7410  -15.2130   -4.7840 N.am  289  GLN289     -0.0878
    137  N         43.8660  -15.9940    2.3650 N.3   293  ARG293     -0.1245
    138  CA        43.5900  -15.6120    3.7500 C.3   293  ARG293      0.1563
    139  C         44.8480  -15.1500    4.5040 C.2   293  ARG293      0.2260
    140  O         44.7420  -14.4290    5.4870 O.2   293  ARG293     -0.2867
    141  CB        42.9010  -16.7530    4.5310 C.3   293  ARG293      0.0307
    142  CG        41.5070  -17.2140    4.0280 C.3   293  ARG293      0.0489
    143  CD        40.5760  -16.0790    3.6390 C.3   293  ARG293      0.2205
    144  NE        40.7070  -15.8070    2.2090 N.pl3 293  ARG293     -0.0865
    145  CZ        40.6360  -14.6050    1.6430 C.cat 293  ARG293      0.5346
    146  NH1       40.4000  -13.5110    2.3680 N.pl3 293  ARG293      0.1354
    147  NH2       40.7910  -14.4980    0.3310 N.pl3 293  ARG293      0.1354
    148  N         48.5850  -11.2190    3.9870 N.3   296  ARG296     -0.1245
    149  CA        47.7680  -10.0050    3.8170 C.3   296  ARG296      0.1563
    150  C         48.3530   -8.7430    4.4540 C.2   296  ARG296      0.2260
    151  O         47.9370   -7.6300    4.1160 O.2   296  ARG296     -0.2867
    152  CB        46.3410  -10.2540    4.3130 C.3   296  ARG296      0.0307
    153  CG        45.6490  -11.3750    3.5710 C.3   296  ARG296      0.0489
    154  CD        44.2580  -11.6660    4.1270 C.3   296  ARG296      0.2205
    155  NE        43.2660  -10.6290    3.8380 N.pl3 296  ARG296     -0.0865
    156  CZ        42.5480  -10.5370    2.7170 C.cat 296  ARG296      0.5346
    157  NH1       41.6570   -9.5640    2.5850 N.pl3 296  ARG296      0.1354
    158  NH2       42.7250  -11.4050    1.7240 N.pl3 296  ARG296      0.1354
    159  N         51.8630   -6.7030    5.0220 N.3   298  PRO298     -0.2116
    160  CA        53.2650   -6.4370    4.6450 C.3   298  PRO298      0.1372
    161  C         54.2450   -6.3400    5.8210 C.2   298  PRO298      0.2244
    162  O         55.4500   -6.5470    5.6360 O.2   298  PRO298     -0.2868
    163  CB        53.1790   -5.0860    3.9270 C.3   298  PRO298      0.0268
    164  CG        51.7800   -5.0520    3.3890 C.3   298  PRO298      0.0207
    165  CD        50.9500   -5.6900    4.4590 C.3   298  PRO298      0.0892
@<TRIPOS>BOND
     1    86    85    2
     2    85    84    1
     3    84    83    1
     4    84    87    1
     5    76    77    2
     6    76    75    1
     7    27    26    1
     8    27    28    1
     9    75    74    1
    10    75    78    1
    11   136   134   am
    12    66    67    1
    13    26    25    1
    14    74    68   am
    15    28    29    1
    16    68    69    2
    17    68    67    1
    18     7     1    1
    19     7     6    1
    20    67    70    1
    21    16    13    1
    22     1     2    1
    23   133   134    1
    24   133   132    1
    25   134   135    2
    26    78    79    1
    27    25    22    1
    28    81    80   ar
    29     6     5    1
    30   128   129    1
    31    72    71   ar
    32    55    54    1
    33    22    21    1
    34    22    23    1
    35    70    71    1
    36    56    54    1
    37   132   129    1
    38    80    79    1
    39    80    82   ar
    40    13    14    1
    41    13    12    1
    42     2     5    1
    43     2     3    1
    44    71    73   ar
    45    54    53    2
    46   129   130    1
    47    24    23    2
    48    15    14    2
    49    21    19   am
    50    14    17   am
    51    23    30   am
    52    12    10   am
    53     4     3    2
    54     3     8   am
    55    19    20    2
    56    19    18    1
    57    17    18    1
    58    53    52    1
    59   130   131    2
    60    30    31    1
    61    49    48    2
    62     8     9    1
    63    48    47    1
    64    94    93    2
    65    88    89    1
    66    10    11    2
    67    10     9    1
    68    35    34    1
    69    52    51    1
    70    31    34    1
    71    31    32    1
    72    89    90    1
    73    89    92    1
    74   147   145    1
    75    51    50    1
    76    50    47    1
    77    47    46    1
    78    93    92    1
    79    93    95   am
    80    90    91    2
    81    34    36    1
    82    46    39   am
    83    32    33    2
    84    32    37   am
    85   105   106    1
    86    37    38    1
    87   145   144    2
    88   145   146    1
    89   158   156    1
    90   106   107    1
    91   144   143    1
    92    39    38    1
    93    39    40    2
    94   137   138    1
    95   157   156    1
    96    38    41    1
    97   156   155    2
    98   164   163    1
    99   164   165    1
   100   107   108    2
   101   153   154    1
   102   153   152    1
   103   143   142    1
   104   138   139    1
   105   138   141    1
   106   149   148    1
   107   149   152    1
   108   149   150    1
   109   155   154    1
   110    41    42    1
   111   163   160    1
   112   142   141    1
   113   151   150    2
   114    42    43    1
   115   165   159    1
   116   139   140    2
   117   160   159    1
   118   160   161    1
   119   115   114    2
   120   116   114   am
   121    43    44    1
   122   162   161    2
   123   114   113    1
   124    44    45    1
   125   109   110    1
   126   113   110    1
   127   110   111    1
   128    59    60    2
   129    59    58    1
   130    57    58    1
   131   127   125    1
   132   111   112    2
   133    58    61    1
   134    61    62    1
   135   125   124    2
   136   125   126    1
   137    65    63   ar
   138   124   123    1
   139   117   118    1
   140   104   103    1
   141    62    63    1
   142    63    64   ar
   143   118   119    1
   144   118   121    1
   145   103   102    1
   146   119   120    2
   147   123   122    1
   148   122   121    1
   149   102   101    1
   150   101   100    1
   151   100    97    1
   152    97    96    1
   153    97    98    1
   154    98    99    2
