@<TRIPOS>MOLECULE
tmp/2jmaA00.pdb
 126 125 0 0 0
SMALL
GASTEIGER

@<TRIPOS>ATOM
      1  N          2.2320    8.9620   -3.2500 N.3    13  TYR13      -0.1227
      2  CA         3.1680    8.9080   -4.3690 C.3    13  TYR13       0.1736
      3  C          2.9500    7.6580   -5.2140 C.2    13  TYR13       0.2595
      4  O          2.1980    6.7610   -4.8360 O.2    13  TYR13      -0.2718
      5  CB         4.6170    8.9320   -3.8560 C.3    13  TYR13       0.0548
      6  CG         4.8110    9.7090   -2.5680 C.ar   13  TYR13      -0.0200
      7  CD1        4.9310   11.0940   -2.5730 C.ar   13  TYR13      -0.0009
      8  CD2        4.8710    9.0530   -1.3470 C.ar   13  TYR13      -0.0009
      9  CE1        5.1030   11.7990   -1.3980 C.ar   13  TYR13       0.0417
     10  CE2        5.0440    9.7510   -0.1700 C.ar   13  TYR13       0.0417
     11  CZ         5.1590   11.1230   -0.2020 C.ar   13  TYR13       0.1957
     12  OH         5.3260   11.8240    0.9720 O.3    13  TYR13      -0.2866
     13  N          3.6140    7.6160   -6.3620 N.am   14  ASP14      -0.1960
     14  CA         3.5320    6.4890   -7.2650 C.3    14  ASP14       0.1840
     15  C          4.4780    5.4040   -6.7880 C.2    14  ASP14       0.2622
     16  O          5.6200    5.6810   -6.4110 O.2    14  ASP14      -0.2715
     17  CB         3.8990    6.9180   -8.6930 C.3    14  ASP14       0.1450
     18  CG         3.8300    5.7740   -9.6870 C.2    14  ASP14       0.3671
     19  OD1        4.8100    5.0060   -9.7900 O.co2  14  ASP14      -0.2456
     20  OD2        2.8000    5.6430  -10.3800 O.co2  14  ASP14      -0.2456
     21  N          4.0020    4.1820   -6.8000 N.am   15  TYR15      -0.1974
     22  CA         4.8000    3.0510   -6.3560 C.3    15  TYR15       0.1639
     23  C          4.6320    1.8680   -7.2990 C.2    15  TYR15       0.2290
     24  O          3.5530    1.6510   -7.8440 O.2    15  TYR15      -0.2864
     25  CB         4.4040    2.6400   -4.9360 C.3    15  TYR15       0.0560
     26  CG         5.1870    1.4580   -4.4140 C.ar   15  TYR15      -0.0198
     27  CD1        6.5500    1.5620   -4.1700 C.ar   15  TYR15      -0.0009
     28  CD2        4.5680    0.2360   -4.1700 C.ar   15  TYR15      -0.0009
     29  CE1        7.2720    0.4890   -3.7000 C.ar   15  TYR15       0.0417
     30  CE2        5.2880   -0.8430   -3.6940 C.ar   15  TYR15       0.0417
     31  CZ         6.6400   -0.7100   -3.4620 C.ar   15  TYR15       0.1957
     32  OH         7.3650   -1.7710   -2.9820 O.3    15  TYR15      -0.2866
     33  N          7.3860   -4.6200   -6.2110 N.3    18  LYS18      -0.1231
     34  CA         8.6850   -5.2420   -6.4350 C.3    18  LYS18       0.1693
     35  C          8.6050   -6.7590   -6.2840 C.2    18  LYS18       0.2592
     36  O          9.2650   -7.4900   -7.0200 O.2    18  LYS18      -0.2718
     37  CB         9.7390   -4.6630   -5.4860 C.3    18  LYS18       0.0285
     38  CG         9.8630   -3.1360   -5.5630 C.3    18  LYS18       0.0035
     39  CD        10.8790   -2.5820   -4.5690 C.3    18  LYS18       0.0206
     40  CE        10.3110   -2.4720   -3.1550 C.3    18  LYS18       0.1093
     41  NZ        10.0600   -3.8020   -2.5450 N.3    18  LYS18      -0.1314
     42  N          7.7850   -7.2330   -5.3490 N.am   19  SER19      -0.1952
     43  CA         7.6420   -8.6610   -5.1230 C.3    19  SER19       0.1924
     44  C          6.1960   -9.0860   -5.3810 C.2    19  SER19       0.2314
     45  O          5.3080   -8.2340   -5.4910 O.2    19  SER19      -0.2863
     46  CB         8.0590   -9.0090   -3.6850 C.3    19  SER19       0.2116
     47  OG         7.1840   -8.4190   -2.7360 O.3    19  SER19      -0.2180
     48  N          4.1670  -10.0900   -3.5050 N.3    21  ALA21      -0.1231
     49  CA         3.3670   -9.7130   -2.3540 C.3    21  ALA21       0.1694
     50  C          3.2410   -8.2010   -2.2880 C.2    21  ALA21       0.2591
     51  O          2.8860   -7.6350   -1.2620 O.2    21  ALA21      -0.2718
     52  CB         3.9780  -10.2530   -1.0720 C.3    21  ALA21       0.0304
     53  N          3.5230   -7.5580   -3.4060 N.am   22  GLU22      -0.1979
     54  CA         3.4580   -6.1100   -3.5050 C.3    22  GLU22       0.1602
     55  C          2.4760   -5.7110   -4.5920 C.2    22  GLU22       0.2287
     56  O          2.2380   -6.4740   -5.5320 O.2    22  GLU22      -0.2864
     57  CB         4.8420   -5.5210   -3.8020 C.3    22  GLU22       0.0415
     58  CG         5.5730   -5.0290   -2.5670 C.3    22  GLU22       0.1163
     59  CD         7.0690   -5.1250   -2.7060 C.2    22  GLU22       0.3649
     60  OE1        7.6610   -4.3600   -3.4920 O.co2  22  GLU22      -0.2457
     61  OE2        7.6620   -5.9680   -2.0200 O.co2  22  GLU22      -0.2457
     62  N          2.3600   -3.5940   10.2230 N.3    38  ASN38      -0.1240
     63  CA         3.7430   -3.2600    9.9260 C.3    38  ASN38       0.1653
     64  C          3.8580   -1.7410    9.8780 C.2    38  ASN38       0.2266
     65  O          2.9110   -1.0640    9.4990 O.2    38  ASN38      -0.2867
     66  CB         4.1520   -3.9030    8.5920 C.3    38  ASN38       0.1155
     67  CG         5.6500   -3.8360    8.2950 C.2    38  ASN38       0.2627
     68  OD1        6.3270   -2.8720    8.6440 O.2    38  ASN38      -0.2716
     69  ND2        6.1810   -4.8560    7.6320 N.am   38  ASN38      -0.0877
     70  N          6.4930   -0.0870    8.3000 N.3    40  ASP40      -0.1225
     71  CA         7.1280    0.3200    7.0510 C.3    40  ASP40       0.1805
     72  C          6.3270   -0.1100    5.8280 C.2    40  ASP40       0.2597
     73  O          6.3860    0.5360    4.7800 O.2    40  ASP40      -0.2718
     74  CB         8.5410   -0.2610    6.9720 C.3    40  ASP40       0.1424
     75  CG         9.4920    0.3720    7.9690 C.2    40  ASP40       0.3668
     76  OD1        9.5030   -0.0550    9.1430 O.co2  40  ASP40      -0.2456
     77  OD2       10.2330    1.3040    7.5850 O.co2  40  ASP40      -0.2456
     78  N          5.5600   -1.1750    5.9660 N.am   41  TRP41      -0.1976
     79  CA         4.7760   -1.6970    4.8520 C.3    41  TRP41       0.1640
     80  C          3.3250   -1.9130    5.2510 C.2    41  TRP41       0.2290
     81  O          3.0470   -2.4570    6.3130 O.2    41  TRP41      -0.2864
     82  CB         5.3690   -3.0250    4.3690 C.3    41  TRP41       0.0576
     83  CG         6.7580   -2.9100    3.8210 C.ar   41  TRP41       0.0006
     84  CD1        7.9240   -3.0300    4.5200 C.ar   41  TRP41       0.0946
     85  CD2        7.1280   -2.6590    2.4590 C.ar   41  TRP41       0.0152
     86  NE1        8.9950   -2.8620    3.6790 N.ar   41  TRP41      -0.2442
     87  CE2        8.5340   -2.6350    2.4110 C.ar   41  TRP41       0.0810
     88  CE3        6.4110   -2.4530    1.2740 C.ar   41  TRP41       0.0012
     89  CZ2        9.2340   -2.4150    1.2270 C.ar   41  TRP41       0.0191
     90  CZ3        7.1080   -2.2320    0.1030 C.ar   41  TRP41       0.0001
     91  CH2        8.5060   -2.2140    0.0880 C.ar   41  TRP41       0.0015
     92  N          1.2510   -5.4710   -0.7190 N.3    52  PHE52      -0.1241
     93  CA         1.8690   -4.4950    0.1620 C.3    52  PHE52       0.1605
     94  C          2.4400   -3.2800   -0.5550 C.2    52  PHE52       0.2264
     95  O          2.8590   -3.3550   -1.7120 O.2    52  PHE52      -0.2867
     96  CB         2.9850   -5.1800    0.9410 C.3    52  PHE52       0.0534
     97  CG         2.4850   -6.1360    1.9820 C.ar   52  PHE52      -0.0203
     98  CD1        1.8990   -7.3420    1.6200 C.ar   52  PHE52      -0.0042
     99  CD2        2.6060   -5.8260    3.3240 C.ar   52  PHE52      -0.0042
    100  CE1        1.4450   -8.2220    2.5850 C.ar   52  PHE52      -0.0003
    101  CE2        2.1540   -6.7020    4.2930 C.ar   52  PHE52      -0.0003
    102  CZ         1.5730   -7.9010    3.9240 C.ar   52  PHE52      -0.0000
    103  N          4.5430    0.7780    0.5860 N.3    54  PRO54      -0.2116
    104  CA         5.2200    1.5510    1.6310 C.3    54  PRO54       0.1372
    105  C          4.2190    2.3470    2.4620 C.2    54  PRO54       0.2244
    106  O          3.3790    3.0580    1.9080 O.2    54  PRO54      -0.2868
    107  CB         6.1110    2.5160    0.8410 C.3    54  PRO54       0.0268
    108  CG         6.2970    1.8520   -0.4750 C.3    54  PRO54       0.0207
    109  CD         4.9950    1.1660   -0.7570 C.3    54  PRO54       0.0892
    110  N          4.8650    4.8200    4.1190 N.3    56  ALA56      -0.1231
    111  CA         5.2510    6.2150    3.9410 C.3    56  ALA56       0.1694
    112  C          4.6910    6.7670    2.6350 C.2    56  ALA56       0.2592
    113  O          4.8660    7.9420    2.3190 O.2    56  ALA56      -0.2718
    114  CB         6.7650    6.3520    3.9480 C.3    56  ALA56       0.0304
    115  N          4.0100    5.9080    1.8850 N.am   57  TYR57      -0.1976
    116  CA         3.4320    6.2920    0.5960 C.3    57  TYR57       0.1639
    117  C          1.9170    6.3600    0.6850 C.2    57  TYR57       0.2290
    118  O          1.2390    6.6480   -0.3020 O.2    57  TYR57      -0.2864
    119  CB         3.8140    5.2730   -0.4860 C.3    57  TYR57       0.0560
    120  CG         5.1830    5.4780   -1.0920 C.ar   57  TYR57      -0.0198
    121  CD1        6.3220    5.5580   -0.2970 C.ar   57  TYR57      -0.0009
    122  CD2        5.3330    5.5840   -2.4650 C.ar   57  TYR57      -0.0009
    123  CE1        7.5690    5.7380   -0.8570 C.ar   57  TYR57       0.0417
    124  CE2        6.5760    5.7630   -3.0350 C.ar   57  TYR57       0.0417
    125  CZ         7.6930    5.8410   -2.2280 C.ar   57  TYR57       0.1957
    126  OH         8.9350    6.0160   -2.7960 O.3    57  TYR57      -0.2866
@<TRIPOS>BOND
     1    20    18   ar
     2    19    18   ar
     3    18    17    1
     4    17    14    1
     5    24    23    2
     6    23    22    1
     7    14    15    1
     8    14    13    1
     9    36    35    2
    10    21    15   am
    11    21    22    1
    12    15    16    2
    13    34    35    1
    14    34    33    1
    15    34    37    1
    16    13     3   am
    17    22    25    1
    18    35    42   am
    19    38    37    1
    20    38    39    1
    21    56    55    2
    22    45    44    2
    23    44    43    1
    24    42    43    1
    25     3     4    2
    26     3     2    1
    27    43    46    1
    28    25    26    1
    29    55    54    1
    30    39    40    1
    31    26    28   ar
    32    26    27   ar
    33     2     5    1
    34     2     1    1
    35    28    30   ar
    36    27    29   ar
    37     5     6    1
    38    57    54    1
    39    57    58    1
    40    29    31   ar
    41    30    31   ar
    42    46    47    1
    43    48    49    1
    44    54    53    1
    45    60    59   ar
    46    31    32    1
    47    53    50   am
    48    40    41    1
    49   124   122   ar
    50   124   125   ar
    51   126   125    1
    52    59    58    1
    53    59    61   ar
    54     7     6   ar
    55     7     9   ar
    56     6     8   ar
    57   122   120   ar
    58    49    50    1
    59    49    52    1
    60    50    51    2
    61   125   123   ar
    62    95    94    2
    63     9    11   ar
    64     8    10   ar
    65   120   119    1
    66   120   121   ar
    67   123   121   ar
    68   109   108    1
    69   109   103    1
    70    92    93    1
    71    94    93    1
    72   119   116    1
    73   108   107    1
    74   118   117    2
    75    11    10   ar
    76    11    12    1
    77    91    90   ar
    78    91    89   ar
    79    90    88   ar
    80    93    96    1
    81   103   104    1
    82   116   117    1
    83   116   115    1
    84   107   104    1
    85    96    97    1
    86    89    87   ar
    87    88    85   ar
    88    98    97   ar
    89    98   100   ar
    90   104   105    1
    91   115   112   am
    92   106   105    2
    93    97    99   ar
    94   113   112    2
    95    87    85   ar
    96    87    86   ar
    97    85    83   ar
    98   100   102   ar
    99   112   111    1
   100    99   101   ar
   101    86    84   ar
   102    83    82    1
   103    83    84   ar
   104   102   101   ar
   105   111   114    1
   106   111   110    1
   107    82    79    1
   108    73    72    2
   109    79    80    1
   110    79    78    1
   111    80    81    2
   112    72    78   am
   113    72    71    1
   114    74    71    1
   115    74    75    1
   116    71    70    1
   117    77    75   ar
   118    69    67   am
   119    75    76   ar
   120    67    66    1
   121    67    68    2
   122    66    63    1
   123    65    64    2
   124    64    63    1
   125    63    62    1
