@<TRIPOS>MOLECULE
tmp/2jmgA00.pdb
 126 121 0 0 0
SMALL
GASTEIGER

@<TRIPOS>ATOM
      1  N          7.9000   15.1460    0.0640 N.3     1  GLY1       -0.1210
      2  CA         8.2580   16.3440   -0.6740 C.3     1  GLY1        0.1956
      3  C          9.0450   16.0360   -1.9330 C.2     1  GLY1        0.2612
      4  O          9.5260   16.9450   -2.6090 O.2     1  GLY1       -0.2717
      5  N          9.1760   14.7520   -2.2470 N.am    2  ALA2       -0.1965
      6  CA         9.9100   14.3270   -3.4330 C.3     2  ALA2        0.1728
      7  C          8.9560   13.9090   -4.5470 C.2     2  ALA2        0.2616
      8  O          7.7450   14.1070   -4.4480 O.2     2  ALA2       -0.2715
      9  CB        10.8550   13.1860   -3.0880 C.3     2  ALA2        0.0334
     10  N          9.5110   13.3310   -5.6080 N.am    3  ARG3       -0.1963
     11  CA         8.7090   12.8870   -6.7420 C.3     3  ARG3        0.1729
     12  C          7.5580   11.9980   -6.2800 C.2     3  ARG3        0.2616
     13  O          7.6440   11.3460   -5.2400 O.2     3  ARG3       -0.2715
     14  CB         9.5810   12.1300   -7.7450 C.3     3  ARG3        0.0348
     15  CG        10.2840   13.0340   -8.7450 C.3     3  ARG3        0.0492
     16  CD        10.2510   12.4450  -10.1470 C.3     3  ARG3        0.2205
     17  NE        10.7600   13.3800  -11.1460 N.pl3   3  ARG3       -0.0865
     18  CZ        10.0550   14.3980  -11.6280 C.cat   3  ARG3        0.5346
     19  NH1        8.8170   14.6100  -11.2040 N.pl3   3  ARG3        0.1354
     20  NH2       10.5890   15.2060  -12.5350 N.pl3   3  ARG3        0.1354
     21  N          6.4820   11.9790   -7.0590 N.am    4  ALA4       -0.1963
     22  CA         5.3150   11.1690   -6.7310 C.3     4  ALA4        0.1728
     23  C          5.7110    9.7240   -6.4510 C.2     4  ALA4        0.2617
     24  O          6.7070    9.2290   -6.9800 O.2     4  ALA4       -0.2715
     25  CB         4.2960   11.2300   -7.8590 C.3     4  ALA4        0.0334
     26  N          4.9270    9.0510   -5.6150 N.am    5  SER5       -0.1936
     27  CA         5.1980    7.6630   -5.2610 C.3     5  SER5        0.2055
     28  C          6.5360    7.5390   -4.5370 C.2     5  SER5        0.2643
     29  O          7.3390    8.4720   -4.5300 O.2     5  SER5       -0.2714
     30  CB         5.2010    6.7860   -6.5140 C.3     5  SER5        0.2130
     31  OG         4.3330    5.6760   -6.3610 O.3     5  SER5       -0.2179
     32  N          6.7670    6.3800   -3.9280 N.am    6  ARG6       -0.1963
     33  CA         8.0050    6.1330   -3.2000 C.3     6  ARG6        0.1729
     34  C          8.5270    4.7260   -3.4760 C.2     6  ARG6        0.2616
     35  O          9.7260    4.5240   -3.6730 O.2     6  ARG6       -0.2715
     36  CB         7.7850    6.3220   -1.6980 C.3     6  ARG6        0.0348
     37  CG         8.4480    7.5690   -1.1370 C.3     6  ARG6        0.0492
     38  CD         8.8650    7.3750    0.3120 C.3     6  ARG6        0.2205
     39  NE        10.1680    6.7250    0.4240 N.pl3   6  ARG6       -0.0865
     40  CZ        10.9300    6.7870    1.5100 C.cat   6  ARG6        0.5346
     41  NH1       10.5210    7.4670    2.5720 N.pl3   6  ARG6        0.1354
     42  NH2       12.1040    6.1690    1.5350 N.pl3   6  ARG6        0.1354
     43  N          7.6190    3.7560   -3.4880 N.am    7  LEU7       -0.1977
     44  CA         7.9860    2.3670   -3.7390 C.3     7  LEU7        0.1596
     45  C          8.5890    2.2060   -5.1310 C.2     7  LEU7        0.2287
     46  O          8.4870    3.1020   -5.9690 O.2     7  LEU7       -0.2864
     47  CB         6.7630    1.4610   -3.5920 C.3     7  LEU7        0.0297
     48  CG         6.1150    1.4260   -2.2080 C.3     7  LEU7        0.0022
     49  CD1        5.0020    0.3910   -2.1650 C.3     7  LEU7        0.0001
     50  CD2        7.1580    1.1350   -1.1380 C.3     7  LEU7        0.0001
     51  N          4.1050   -6.1530   -3.0800 N.3    15  TRP15      -0.1241
     52  CA         2.8190   -5.4670   -3.0310 C.3    15  TRP15       0.1605
     53  C          1.8020   -6.1530   -3.9360 C.2    15  TRP15       0.2264
     54  O          0.6250   -6.2580   -3.5930 O.2    15  TRP15      -0.2867
     55  CB         2.9830   -4.0040   -3.4440 C.3    15  TRP15       0.0550
     56  CG         1.6840   -3.2600   -3.5220 C.ar   15  TRP15       0.0003
     57  CD1        1.1020   -2.7430   -4.6440 C.ar   15  TRP15       0.0946
     58  CD2        0.8070   -2.9490   -2.4340 C.ar   15  TRP15       0.0152
     59  NE1       -0.0840   -2.1290   -4.3190 N.ar   15  TRP15      -0.2442
     60  CE2       -0.2880   -2.2430   -2.9690 C.ar   15  TRP15       0.0810
     61  CE3        0.8390   -3.2010   -1.0590 C.ar   15  TRP15       0.0012
     62  CZ2       -1.3380   -1.7860   -2.1770 C.ar   15  TRP15       0.0191
     63  CZ3       -0.2040   -2.7460   -0.2750 C.ar   15  TRP15       0.0001
     64  CH2       -1.2800   -2.0460   -0.8350 C.ar   15  TRP15       0.0015
     65  N         -2.2820    2.0440   -4.1710 N.3    33  ILE33      -0.1245
     66  CA        -1.2860    2.9500   -3.6130 C.3    33  ILE33       0.1561
     67  C         -1.6540    4.4050   -3.8840 C.2    33  ILE33       0.2260
     68  O         -1.3370    5.2950   -3.0950 O.2    33  ILE33      -0.2867
     69  CB         0.1150    2.6710   -4.1890 C.3    33  ILE33       0.0252
     70  CG1        0.5910    1.2770   -3.7750 C.3    33  ILE33       0.0019
     71  CG2        1.1000    3.7330   -3.7230 C.3    33  ILE33       0.0019
     72  CD1        1.2730    0.5160   -4.8900 C.3    33  ILE33       0.0001
     73  N         -5.2260    5.2230   -1.9380 N.3    36  ALA36      -0.1231
     74  CA        -4.9540    5.3540   -0.5120 C.3    36  ALA36       0.1694
     75  C         -4.3030    6.6970   -0.1980 C.2    36  ALA36       0.2592
     76  O         -4.8100    7.4680    0.6170 O.2    36  ALA36      -0.2718
     77  CB        -4.0680    4.2120   -0.0360 C.3    36  ALA36       0.0304
     78  N         -3.1770    6.9710   -0.8490 N.am   37  SER37      -0.1952
     79  CA        -2.4550    8.2190   -0.6360 C.3    37  SER37       0.1924
     80  C         -3.3820    9.4190   -0.8030 C.2    37  SER37       0.2314
     81  O         -3.1830   10.4630   -0.1810 O.2    37  SER37      -0.2863
     82  CB        -1.2810    8.3270   -1.6120 C.3    37  SER37       0.2116
     83  OG        -0.3440    7.2850   -1.4000 O.3    37  SER37      -0.2180
     84  N         -0.4900   11.5600    3.6600 N.3    47  PRO47      -0.2102
     85  CA        -0.0440   10.3500    2.9630 C.3    47  PRO47       0.1504
     86  C          1.4030    9.9940    3.2870 C.2    47  PRO47       0.2576
     87  O          1.9110    8.9620    2.8500 O.2    47  PRO47      -0.2718
     88  CB        -0.1850   10.7200    1.4840 C.3    47  PRO47       0.0282
     89  CG        -0.0770   12.2060    1.4540 C.3    47  PRO47       0.0208
     90  CD        -0.6870   12.6920    2.7400 C.3    47  PRO47       0.0893
     91  N          2.0620   10.8550    4.0560 N.am   48  GLY48      -0.1957
     92  CA         3.4440   10.6130    4.4250 C.3    48  GLY48       0.1869
     93  C          3.5780    9.5810    5.5270 C.2    48  GLY48       0.2309
     94  O          4.6680    9.3670    6.0590 O.2    48  GLY48      -0.2863
     95  N          2.5540    6.4230    5.0180 N.3    50  LEU50      -0.1231
     96  CA         2.7530    5.1510    4.3330 C.3    50  LEU50       0.1693
     97  C          4.2390    4.8640    4.1390 C.2    50  LEU50       0.2591
     98  O          4.6180    3.7830    3.6900 O.2    50  LEU50      -0.2718
     99  CB         2.0430    5.1610    2.9790 C.3    50  LEU50       0.0284
    100  CG         0.5640    5.5500    3.0000 C.3    50  LEU50       0.0019
    101  CD1        0.1680    6.2140    1.6900 C.3    50  LEU50       0.0001
    102  CD2       -0.3050    4.3300    3.2660 C.3    50  LEU50       0.0001
    103  N          5.0740    5.8400    4.4820 N.am   51  GLU51      -0.1979
    104  CA         6.5190    5.6910    4.3450 C.3    51  GLU51       0.1602
    105  C          7.1650    5.3950    5.6960 C.2    51  GLU51       0.2287
    106  O          8.1910    5.9790    6.0480 O.2    51  GLU51      -0.2864
    107  CB         7.1290    6.9570    3.7410 C.3    51  GLU51       0.0415
    108  CG         6.6900    8.2350    4.4350 C.3    51  GLU51       0.1163
    109  CD         7.4630    9.4510    3.9620 C.2    51  GLU51       0.3649
    110  OE1        8.6270    9.2880    3.5400 O.co2  51  GLU51      -0.2457
    111  OE2        6.9040   10.5670    4.0140 O.co2  51  GLU51      -0.2457
    112  N         -6.4050   -1.6170    3.6950 N.3    80  THR80      -0.1218
    113  CA        -5.2990   -1.2160    2.8350 C.3    80  THR80       0.1862
    114  C         -4.0020   -1.0960    3.6280 C.2    80  THR80       0.2287
    115  O         -3.0620   -1.8630    3.4180 O.2    80  THR80      -0.2866
    116  CB        -5.5870    0.1270    2.1380 C.3    80  THR80       0.1770
    117  OG1       -6.8590    0.0750    1.4820 O.3    80  THR80      -0.2211
    118  CG2       -4.5010    0.4550    1.1250 C.3    80  THR80       0.0375
    119  N         -0.0770   -2.9030    3.6420 N.3    84  LEU84      -0.1245
    120  CA         1.1790   -2.1900    3.4420 C.3    84  LEU84       0.1561
    121  C          2.0810   -2.3210    4.6650 C.2    84  LEU84       0.2260
    122  O          3.2920   -2.5060    4.5400 O.2    84  LEU84      -0.2867
    123  CB         0.9090   -0.7130    3.1500 C.3    84  LEU84       0.0270
    124  CG         2.1390    0.1930    3.0740 C.3    84  LEU84       0.0019
    125  CD1        3.1580   -0.3720    2.0960 C.3    84  LEU84       0.0001
    126  CD2        1.7380    1.6050    2.6720 C.3    84  LEU84       0.0001
@<TRIPOS>BOND
     1    20    18    1
     2    18    19    1
     3    18    17    2
     4    17    16    1
     5    16    15    1
     6    15    14    1
     7    25    22    1
     8    14    11    1
     9    21    22    1
    10    21    12   am
    11    24    23    2
    12    11    12    1
    13    11    10    1
    14    22    23    1
    15    30    31    1
    16    30    27    1
    17    23    26   am
    18    12    13    2
    19    46    45    2
    20    26    27    1
    21    10     7   am
    22    27    28    1
    23    45    44    1
    24    72    70    1
    25    57    59   ar
    26    57    56   ar
    27     7     8    2
    28     7     6    1
    29    28    29    2
    30    28    32   am
    31    59    60   ar
    32    69    70    1
    33    69    71    1
    34    69    66    1
    35    65    66    1
    36    53    54    2
    37    53    52    1
    38    32    33    1
    39    67    66    1
    40    67    68    2
    41    44    47    1
    42    44    43    1
    43    35    34    2
    44    47    48    1
    45    56    55    1
    46    56    58   ar
    47    43    34   am
    48    34    33    1
    49    55    52    1
    50     6     9    1
    51     6     5    1
    52    33    36    1
    53    51    52    1
    54    60    58   ar
    55    60    62   ar
    56     4     3    2
    57    58    61   ar
    58     5     3   am
    59    48    49    1
    60    48    50    1
    61    62    64   ar
    62    73    74    1
    63     3     2    1
    64    36    37    1
    65    82    83    1
    66    82    79    1
    67    37    38    1
    68    61    63   ar
    69    78    79    1
    70    78    75   am
    71    64    63   ar
    72    80    79    1
    73    80    81    2
    74     2     1    1
    75    74    75    1
    76    74    77    1
    77    75    76    2
    78    38    39    1
    79    39    40    2
    80   118   116    1
    81    89    88    1
    82    89    90    1
    83   117   116    1
    84    88    85    1
    85    40    42    1
    86    40    41    1
    87   101   100    1
    88   125   124    1
    89   116   113    1
    90   126   124    1
    91    90    84    1
    92   113   114    1
    93   113   112    1
    94    87    86    2
    95    85    86    1
    96    85    84    1
    97    99   100    1
    98    99    96    1
    99   100   102    1
   100   124   123    1
   101   123   120    1
   102    86    91   am
   103   115   114    2
   104   120   119    1
   105   120   121    1
   106   110   109   ar
   107    98    97    2
   108   107   104    1
   109   107   108    1
   110   109   111   ar
   111   109   108    1
   112    91    92    1
   113    97    96    1
   114    97   103   am
   115    96    95    1
   116   104   103    1
   117   104   105    1
   118    92    93    1
   119   122   121    2
   120    93    94    2
   121   105   106    2
