@<TRIPOS>MOLECULE
tmp/2jmjA00.pdb
 172 174 0 0 0
SMALL
GASTEIGER

@<TRIPOS>ATOM
      1  N          0.2040    9.1380   -2.9310 N.3     5  TYR5       -0.1241
      2  CA         0.8290    8.0310   -2.2170 C.3     5  TYR5        0.1605
      3  C          1.1580    6.8640   -3.1520 C.2     5  TYR5        0.2264
      4  O          2.2790    6.7680   -3.6570 O.2     5  TYR5       -0.2867
      5  CB        -0.0990    7.5560   -1.0940 C.3     5  TYR5        0.0534
      6  CG        -0.1080    8.5660    0.0300 C.ar    5  TYR5       -0.0201
      7  CD1        1.0220    8.7240    0.8430 C.ar    5  TYR5       -0.0009
      8  CD2       -1.2500    9.3430    0.2610 C.ar    5  TYR5       -0.0009
      9  CE1        1.0080    9.6560    1.8880 C.ar    5  TYR5        0.0417
     10  CE2       -1.2620   10.2740    1.3040 C.ar    5  TYR5        0.0417
     11  CZ        -0.1340   10.4310    2.1180 C.ar    5  TYR5        0.1957
     12  OH        -0.1490   11.3500    3.1470 O.3     5  TYR5       -0.2866
     13  N         -4.6620   10.3350   -1.7200 N.3    12  SER12      -0.1202
     14  CA        -5.2660    9.3310   -0.8580 C.3    12  SER12       0.2020
     15  C         -6.7790    9.5160   -0.8160 C.2    12  SER12       0.2619
     16  O         -7.2800   10.4150   -0.1430 O.2    12  SER12      -0.2717
     17  CB        -4.6950    9.4690    0.5580 C.3    12  SER12       0.2103
     18  OG        -5.7100    9.1720    1.5140 O.3    12  SER12      -0.2182
     19  N         -7.5040    8.6620   -1.5310 N.am   13  TYR13      -0.1961
     20  CA        -8.9580    8.7570   -1.5480 C.3    13  TYR13       0.1771
     21  C         -9.5160    8.6470   -0.1260 C.2    13  TYR13       0.2620
     22  O        -10.1970    9.5510    0.3610 O.2    13  TYR13      -0.2715
     23  CB        -9.5720    7.6460   -2.4100 C.3    13  TYR13       0.0574
     24  CG        -8.6460    7.2520   -3.5410 C.ar   13  TYR13      -0.0198
     25  CD1       -8.2670    8.1920   -4.5060 C.ar   13  TYR13      -0.0009
     26  CD2       -8.1860    5.9330   -3.6330 C.ar   13  TYR13      -0.0009
     27  CE1       -7.4300    7.8130   -5.5630 C.ar   13  TYR13       0.0417
     28  CE2       -7.3450    5.5530   -4.6850 C.ar   13  TYR13       0.0417
     29  CZ        -6.9680    6.4920   -5.6520 C.ar   13  TYR13       0.1957
     30  OH        -6.1520    6.1100   -6.6980 O.3    13  TYR13      -0.2866
     31  N         -9.2290    7.5260    0.5270 N.am   14  GLY14      -0.1940
     32  CA        -9.7110    7.2940    1.8860 C.3    14  GLY14       0.1998
     33  C         -9.2530    5.9300    2.3990 C.2    14  GLY14       0.2481
     34  O         -8.5390    5.8420    3.3980 O.2    14  GLY14      -0.2729
     35  N         -9.6420    4.8790    1.7190 N.am   15  PRO15      -0.2715
     36  CA        -9.2630    3.4810    2.0830 C.3    15  PRO15       0.1536
     37  C         -7.7970    3.2250    1.7470 C.2    15  PRO15       0.2598
     38  O         -7.4390    3.1130    0.5760 O.2    15  PRO15      -0.2715
     39  CB       -10.1960    2.6210    1.2270 C.3    15  PRO15       0.0310
     40  CG       -10.5560    3.4680    0.0530 C.3    15  PRO15       0.0237
     41  CD       -10.4870    4.9210    0.5180 C.3    15  PRO15       0.0939
     42  N         -6.9400    3.1840    2.7720 N.am   16  MET16      -0.1964
     43  CA        -5.5080    2.9980    2.5360 C.3    16  MET16       0.1736
     44  C         -4.8220    2.1450    3.6010 C.2    16  MET16       0.2616
     45  O         -5.4300    1.7090    4.5790 O.2    16  MET16      -0.2715
     46  CB        -4.8140    4.3600    2.5030 C.3    16  MET16       0.0427
     47  CG        -5.6280    5.3400    1.6570 C.3    16  MET16       0.0599
     48  SD        -4.6830    6.8560    1.3970 S.3    16  MET16      -0.1393
     49  CE        -3.1410    6.1070    0.8090 C.3    16  MET16       0.0692
     50  N         -3.5250    1.9380    3.3720 N.am   17  VAL17      -0.1963
     51  CA        -2.6710    1.1590    4.2610 C.3    17  VAL17       0.1727
     52  C         -1.2140    1.5760    4.0440 C.2    17  VAL17       0.2616
     53  O         -0.9140    2.2880    3.0880 O.2    17  VAL17      -0.2715
     54  CB        -2.8300   -0.3310    3.9530 C.3    17  VAL17       0.0290
     55  CG1       -2.4680   -0.5810    2.4850 C.3    17  VAL17       0.0023
     56  CG2       -1.9050   -1.1570    4.8590 C.3    17  VAL17       0.0023
     57  N         -0.3130    1.1360    4.9210 N.am   18  ALA18      -0.1963
     58  CA         1.1020    1.4850    4.7900 C.3    18  ALA18       0.1728
     59  C          1.9490    0.2450    4.5020 C.2    18  ALA18       0.2616
     60  O          1.7000   -0.8260    5.0520 O.2    18  ALA18      -0.2715
     61  CB         1.5930    2.1490    6.0780 C.3    18  ALA18       0.0334
     62  N          2.9550    0.4010    3.6330 N.am   19  CYS19      -0.1954
     63  CA         3.8360   -0.7150    3.2800 C.3    19  CYS19       0.1843
     64  C          4.5130   -1.2910    4.5250 C.2    19  CYS19       0.2625
     65  O          5.3530   -0.6410    5.1480 O.2    19  CYS19      -0.2714
     66  CB         4.9130   -0.2570    2.2770 C.3    19  CYS19       0.0997
     67  SG         5.1490   -1.5730    0.9620 S.3    19  CYS19      -0.0797
     68  N          4.1400   -2.5210    4.8750 N.am   20  ASP20      -0.1971
     69  CA         4.7150   -3.1920    6.0370 C.3    20  ASP20       0.1709
     70  C          5.9080   -4.0380    5.6010 C.2    20  ASP20       0.2293
     71  O          6.1230   -5.1440    6.0980 O.2    20  ASP20      -0.2864
     72  CB         3.6480   -4.0780    6.6980 C.3    20  ASP20       0.1436
     73  CG         3.5080   -3.7410    8.1830 C.2    20  ASP20       0.3671
     74  OD1        3.6130   -2.5730    8.5260 O.co2  20  ASP20      -0.2456
     75  OD2        3.2900   -4.6580    8.9600 O.co2  20  ASP20      -0.2456
     76  N          5.2160    4.3140    2.2270 N.3    27  GLU27      -0.1231
     77  CA         4.6180    3.7100    3.4170 C.3    27  GLU27       0.1699
     78  C          3.1560    4.1310    3.5560 C.2    27  GLU27       0.2592
     79  O          2.6410    4.2800    4.6610 O.2    27  GLU27      -0.2718
     80  CB         5.4160    4.0960    4.6720 C.3    27  GLU27       0.0402
     81  CG         6.4850    3.0270    4.9340 C.3    27  GLU27       0.1161
     82  CD         7.0610    3.1750    6.3420 C.2    27  GLU27       0.3649
     83  OE1        7.2080    4.3010    6.7910 O.co2  27  GLU27      -0.2457
     84  OE2        7.3540    2.1570    6.9470 O.co2  27  GLU27      -0.2457
     85  N          2.4990    4.2970    2.4120 N.am   28  TRP28      -0.1976
     86  CA         1.0890    4.6760    2.3650 C.3    28  TRP28       0.1640
     87  C          0.5440    4.3850    0.9680 C.2    28  TRP28       0.2290
     88  O          1.0700    4.8830   -0.0240 O.2    28  TRP28      -0.2864
     89  CB         0.9120    6.1620    2.7010 C.3    28  TRP28       0.0576
     90  CG         0.9510    6.3630    4.1870 C.ar   28  TRP28       0.0006
     91  CD1        1.8080    7.1900    4.8280 C.ar   28  TRP28       0.0946
     92  CD2        0.1210    5.7530    5.2240 C.ar   28  TRP28       0.0152
     93  NE1        1.5640    7.1250    6.1860 N.ar   28  TRP28      -0.2442
     94  CE2        0.5360    6.2540    6.4820 C.ar   28  TRP28       0.0810
     95  CE3       -0.9370    4.8250    5.1990 C.ar   28  TRP28       0.0012
     96  CZ2       -0.0740    5.8480    7.6700 C.ar   28  TRP28       0.0191
     97  CZ3       -1.5540    4.4170    6.3940 C.ar   28  TRP28       0.0001
     98  CH2       -1.1230    4.9260    7.6260 C.ar   28  TRP28       0.0015
     99  N         -6.4570    1.6270   -1.2900 N.3    31  TYR31      -0.1227
    100  CA        -7.0910    0.3700   -1.6650 C.3    31  TYR31       0.1736
    101  C         -7.5270    0.4420   -3.1200 C.2    31  TYR31       0.2596
    102  O         -7.4490   -0.5470   -3.8490 O.2    31  TYR31      -0.2718
    103  CB        -8.2870    0.0870   -0.7470 C.3    31  TYR31       0.0548
    104  CG        -7.8050   -0.1270    0.6770 C.ar   31  TYR31      -0.0200
    105  CD1       -6.4380   -0.0400    0.9910 C.ar   31  TYR31      -0.0009
    106  CD2       -8.7280   -0.4180    1.6880 C.ar   31  TYR31      -0.0009
    107  CE1       -6.0040   -0.2430    2.3020 C.ar   31  TYR31       0.0417
    108  CE2       -8.2890   -0.6190    3.0030 C.ar   31  TYR31       0.0417
    109  CZ        -6.9290   -0.5320    3.3090 C.ar   31  TYR31       0.1957
    110  OH        -6.5000   -0.7350    4.6050 O.3    31  TYR31      -0.2866
    111  N         -7.9420    1.6340   -3.5500 N.am   32  GLY32      -0.1957
    112  CA        -8.3350    1.8390   -4.9380 C.3    32  GLY32       0.1869
    113  C         -7.0880    1.7450   -5.8070 C.2    32  GLY32       0.2309
    114  O         -7.1470    1.3660   -6.9810 O.2    32  GLY32      -0.2863
    115  N         -7.6640   -4.5540   -2.0360 N.3    36  LEU36      -0.1231
    116  CA        -8.0350   -5.0680   -0.7090 C.3    36  LEU36       0.1693
    117  C         -9.1480   -4.2290   -0.0770 C.2    36  LEU36       0.2592
    118  O         -9.5870   -3.2230   -0.6380 O.2    36  LEU36      -0.2718
    119  CB        -6.8370   -5.1370    0.2660 C.3    36  LEU36       0.0284
    120  CG        -5.8170   -3.9950    0.0660 C.3    36  LEU36       0.0019
    121  CD1       -6.4610   -2.7340   -0.5080 C.3    36  LEU36       0.0001
    122  CD2       -5.2070   -3.6350    1.4230 C.3    36  LEU36       0.0001
    123  N         -9.5970   -4.6700    1.1000 N.am   37  LYS37      -0.1966
    124  CA       -10.6600   -3.9840    1.8340 C.3    37  LYS37       0.1728
    125  C        -10.3590   -4.0020    3.3270 C.2    37  LYS37       0.2616
    126  O        -10.2840   -5.0700    3.9390 O.2    37  LYS37      -0.2715
    127  CB       -12.0000   -4.6790    1.5850 C.3    37  LYS37       0.0311
    128  CG       -12.3140   -4.6670    0.0860 C.3    37  LYS37       0.0038
    129  CD       -13.7460   -5.1590   -0.1500 C.3    37  LYS37       0.0206
    130  CE       -13.8400   -6.6590    0.1510 C.3    37  LYS37       0.1093
    131  NZ       -14.1190   -6.8620    1.6000 N.3    37  LYS37      -0.1314
    132  N        -10.1840   -2.8150    3.9050 N.am   38  GLN38      -0.1963
    133  CA        -9.8830   -2.6930    5.3320 C.3    38  GLN38       0.1733
    134  C         -8.6120   -3.4610    5.6910 C.2    38  GLN38       0.2616
    135  O         -8.2580   -3.5780    6.8660 O.2    38  GLN38      -0.2715
    136  CB       -11.0520   -3.2230    6.1690 C.3    38  GLN38       0.0408
    137  CG       -12.3070   -2.3930    5.8960 C.3    38  GLN38       0.0908
    138  CD       -13.4820   -2.9460    6.6970 C.2    38  GLN38       0.2608
    139  OE1      -13.6620   -4.1620    6.7790 O.2    38  GLN38      -0.2717
    140  NE2      -14.2940   -2.1230    7.3000 N.am   38  GLN38      -0.0878
    141  N         -7.9360   -3.9890    4.6660 N.am   39  ALA39      -0.1977
    142  CA        -6.7100   -4.7610    4.8600 C.3    39  ALA39       0.1597
    143  C         -7.0060   -6.0300    5.6630 C.2    39  ALA39       0.2287
    144  O         -7.6540   -5.9720    6.7090 O.2    39  ALA39      -0.2864
    145  CB        -5.6530   -3.9170    5.5830 C.3    39  ALA39       0.0319
    146  N         -4.8980   -8.4810   10.0450 N.3    42  GLY42      -0.1210
    147  CA        -3.4980   -8.6090   10.4400 C.3    42  GLY42       0.1956
    148  C         -2.6540   -7.4920    9.8360 C.2    42  GLY42       0.2612
    149  O         -2.4610   -6.4460   10.4550 O.2    42  GLY42      -0.2717
    150  N         -2.1460   -7.7230    8.6270 N.am   43  LYS43      -0.1965
    151  CA        -1.3170   -6.7260    7.9600 C.3    43  LYS43       0.1728
    152  C         -1.3560   -6.8980    6.4440 C.2    43  LYS43       0.2616
    153  O         -1.4130   -8.0180    5.9330 O.2    43  LYS43      -0.2715
    154  CB         0.1290   -6.8450    8.4510 C.3    43  LYS43       0.0311
    155  CG         0.6820   -8.2330    8.1000 C.3    43  LYS43       0.0038
    156  CD         2.1180   -8.3670    8.6150 C.3    43  LYS43       0.0206
    157  CE         2.5920   -9.8100    8.4280 C.3    43  LYS43       0.1093
    158  NZ         2.3660  -10.2250    7.0140 N.3    43  LYS43      -0.1314
    159  N         -1.3070   -5.7730    5.7370 N.am   44  TRP44      -0.1974
    160  CA        -1.3140   -5.7800    4.2810 C.3    44  TRP44       0.1640
    161  C          0.0130   -5.2350    3.7710 C.2    44  TRP44       0.2290
    162  O          0.7800   -4.6400    4.5300 O.2    44  TRP44      -0.2864
    163  CB        -2.4810   -4.9280    3.7680 C.3    44  TRP44       0.0576
    164  CG        -2.2870   -4.5710    2.3250 C.ar   44  TRP44       0.0006
    165  CD1       -1.6770   -3.4500    1.8870 C.ar   44  TRP44       0.0946
    166  CD2       -2.6940   -5.3050    1.1340 C.ar   44  TRP44       0.0152
    167  NE1       -1.6990   -3.4360    0.5070 N.ar   44  TRP44      -0.2442
    168  CE2       -2.3060   -4.5620   -0.0060 C.ar   44  TRP44       0.0810
    169  CE3       -3.3570   -6.5270    0.9320 C.ar   44  TRP44       0.0012
    170  CZ2       -2.5640   -5.0130   -1.2980 C.ar   44  TRP44       0.0191
    171  CZ3       -3.6190   -6.9860   -0.3700 C.ar   44  TRP44       0.0001
    172  CH2       -3.2220   -6.2300   -1.4830 C.ar   44  TRP44       0.0015
@<TRIPOS>BOND
     1   114   113    2
     2    30    29    1
     3   113   112    1
     4    29    27   ar
     5    29    28   ar
     6    27    25   ar
     7   112   111    1
     8    28    26   ar
     9    25    24   ar
    10   102   101    2
    11     4     3    2
    12    26    24   ar
    13   111   101   am
    14    24    23    1
    15     3     2    1
    16   101   100    1
    17     1     2    1
    18    23    20    1
    19     2     5    1
    20   115   116    1
    21    13    14    1
    22   100    99    1
    23   100   103    1
    24    20    19    1
    25    20    21    1
    26    19    15   am
    27   172   170   ar
    28   172   171   ar
    29   170   168   ar
    30     5     6    1
    31    14    15    1
    32    14    17    1
    33    15    16    2
    34   103   104    1
    35   116   117    1
    36   116   119    1
    37   118   117    2
    38   121   120    1
    39   171   169   ar
    40   129   128    1
    41   129   130    1
    42    21    22    2
    43    21    31   am
    44   117   123   am
    45    88    87    2
    46   168   167   ar
    47   168   166   ar
    48     6     8   ar
    49     6     7   ar
    50    40    41    1
    51    40    39    1
    52   120   119    1
    53   120   122    1
    54   128   127    1
    55   130   131    1
    56     8    10   ar
    57   167   165   ar
    58    41    35    1
    59    31    32    1
    60    17    18    1
    61    38    37    2
    62   104   105   ar
    63   104   106   ar
    64    49    48    1
    65     7     9   ar
    66   169   166   ar
    67    67    66    1
    68    87    86    1
    69   105   107   ar
    70   123   124    1
    71   166   164   ar
    72    39    36    1
    73    10    11   ar
    74    48    47    1
    75   127   124    1
    76    47    46    1
    77   106   108   ar
    78    35    36    1
    79    35    33   am
    80    37    36    1
    81    37    42   am
    82   124   125    1
    83    32    33    1
    84   165   164   ar
    85     9    11   ar
    86    11    12    1
    87    76    77    1
    88    66    63    1
    89   107   109   ar
    90   164   163    1
    91    86    85    1
    92    86    89    1
    93    33    34    2
    94    85    78   am
    95    55    54    1
    96    46    43    1
    97    43    42    1
    98    43    44    1
    99    89    90    1
   100   108   109   ar
   101    53    52    2
   102    63    62    1
   103    63    64    1
   104   109   110    1
   105   125   132   am
   106   125   126    2
   107    50    44   am
   108    50    51    1
   109    77    78    1
   110    77    80    1
   111    78    79    2
   112    44    45    2
   113    62    59   am
   114   163   160    1
   115   161   160    1
   116   161   162    2
   117   132   133    1
   118    54    51    1
   119    54    56    1
   120    52    51    1
   121    52    57   am
   122    90    91   ar
   123    90    92   ar
   124   160   159    1
   125    59    58    1
   126    59    60    2
   127    64    68   am
   128    64    65    2
   129   141   142    1
   130   141   134   am
   131    80    81    1
   132    58    57    1
   133    58    61    1
   134    91    93   ar
   135   142   145    1
   136   142   143    1
   137    68    69    1
   138    81    82    1
   139    95    92   ar
   140    95    97   ar
   141    92    94   ar
   142   133   134    1
   143   133   136    1
   144    70    69    1
   145    70    71    2
   146   143   144    2
   147   134   135    2
   148   159   152   am
   149   137   136    1
   150   137   138    1
   151   153   152    2
   152    69    72    1
   153    93    94   ar
   154    82    83   ar
   155    82    84   ar
   156    97    98   ar
   157   152   151    1
   158    94    96   ar
   159   138   139    2
   160   138   140   am
   161    72    73    1
   162   158   157    1
   163    98    96   ar
   164   151   154    1
   165   151   150    1
   166   155   154    1
   167   155   156    1
   168    73    74   ar
   169    73    75   ar
   170   157   156    1
   171   150   148   am
   172   148   147    1
   173   148   149    2
   174   146   147    1
