@<TRIPOS>MOLECULE
tmp/2jnpA00.pdb
 161 161 0 0 0
SMALL
GASTEIGER

@<TRIPOS>ATOM
      1  N         -1.7070    1.7430   15.5320 N.3    68  TYR68      -0.1241
      2  CA        -0.7860    2.8510   15.8560 C.3    68  TYR68       0.1605
      3  C         -1.4120    4.2160   15.4830 C.2    68  TYR68       0.2264
      4  O         -1.6620    4.4430   14.2950 O.2    68  TYR68      -0.2867
      5  CB         0.6000    2.6600   15.1820 C.3    68  TYR68       0.0534
      6  CG         0.6880    1.7310   13.9710 C.ar   68  TYR68      -0.0201
      7  CD1       -0.1100    1.9530   12.8290 C.ar   68  TYR68      -0.0009
      8  CD2        1.5320    0.6010   14.0080 C.ar   68  TYR68      -0.0009
      9  CE1       -0.1110    1.0370   11.7600 C.ar   68  TYR68       0.0417
     10  CE2        1.5530   -0.3100   12.9340 C.ar   68  TYR68       0.0417
     11  CZ         0.7100   -0.1140   11.8200 C.ar   68  TYR68       0.1957
     12  OH         0.6740   -1.0410   10.8220 O.3    68  TYR68      -0.2866
     13  N          8.1640    6.1470   10.6770 N.3    75  ASN75      -0.1225
     14  CA         8.3280    5.0870    9.6800 C.3    75  ASN75       0.1785
     15  C          7.0240    4.5850    9.0450 C.2    75  ASN75       0.2597
     16  O          6.9240    4.6010    7.8240 O.2    75  ASN75      -0.2718
     17  CB         9.1580    3.9360   10.3020 C.3    75  ASN75       0.1169
     18  CG         8.6940    3.5200   11.7010 C.2    75  ASN75       0.2627
     19  OD1        8.8510    4.2500   12.6670 O.2    75  ASN75      -0.2716
     20  ND2        8.0840    2.3580   11.8730 N.am   75  ASN75      -0.0877
     21  N          6.0340    4.1820    9.8510 N.am   76  VAL76      -0.1966
     22  CA         4.7310    3.7090    9.3660 C.3    76  VAL76       0.1727
     23  C          3.9720    4.8530    8.6900 C.2    76  VAL76       0.2616
     24  O          3.8570    5.9290    9.2640 O.2    76  VAL76      -0.2715
     25  CB         3.9070    3.0150   10.4750 C.3    76  VAL76       0.0290
     26  CG1        3.5850    3.9040   11.6900 C.3    76  VAL76       0.0023
     27  CG2        2.6200    2.4230    9.8810 C.3    76  VAL76       0.0023
     28  N          3.5040    4.6500    7.4600 N.am   77  LEU77      -0.1963
     29  CA         2.8660    5.7070    6.6510 C.3    77  LEU77       0.1728
     30  C          1.4320    5.3680    6.2310 C.2    77  LEU77       0.2616
     31  O          0.4840    6.1020    6.4880 O.2    77  LEU77      -0.2715
     32  CB         3.7600    5.9130    5.4110 C.3    77  LEU77       0.0311
     33  CG         5.0070    6.7750    5.7000 C.3    77  LEU77       0.0022
     34  CD1        6.0510    6.5590    4.5950 C.3    77  LEU77       0.0001
     35  CD2        4.6080    8.2500    5.7450 C.3    77  LEU77       0.0001
     36  N          1.2420    4.2310    5.5840 N.am   78  ALA78      -0.1963
     37  CA        -0.0090    3.8970    4.9400 C.3    78  ALA78       0.1728
     38  C         -0.1120    2.3870    4.8100 C.2    78  ALA78       0.2616
     39  O          0.8930    1.6990    4.6500 O.2    78  ALA78      -0.2715
     40  CB        -0.0400    4.6380    3.6000 C.3    78  ALA78       0.0334
     41  N         -1.3170    1.8350    4.8800 N.am   79  HIS79      -0.1959
     42  CA        -1.4880    0.3750    4.8590 C.3    79  HIS79       0.1787
     43  C         -2.5060   -0.0900    3.8340 C.2    79  HIS79       0.2620
     44  O         -3.3900    0.6830    3.4700 O.2    79  HIS79      -0.2715
     45  CB        -1.7760   -0.1810    6.2710 C.3    79  HIS79       0.0785
     46  CG        -3.2180   -0.2100    6.7520 C.ar   79  HIS79       0.0821
     47  ND1       -4.3450    0.2120    6.0780 N.ar   79  HIS79      -0.2267
     48  CD2       -3.6600   -0.8320    7.8910 C.ar   79  HIS79       0.1154
     49  CE1       -5.4240   -0.1720    6.7790 C.ar   79  HIS79       0.1986
     50  NE2       -5.0550   -0.7880    7.9120 N.ar   79  HIS79      -0.2212
     51  N         -2.4420   -1.3660    3.4660 N.am   80  ALA80      -0.1977
     52  CA        -3.5010   -2.0260    2.7200 C.3    80  ALA80       0.1597
     53  C         -3.5430   -3.5190    3.0470 C.2    80  ALA80       0.2287
     54  O         -2.5700   -4.0920    3.5420 O.2    80  ALA80      -0.2864
     55  CB        -3.3930   -1.7460    1.2240 C.3    80  ALA80       0.0319
     56  N          4.5430    6.6420   -5.0700 N.3   110  LEU110     -0.1231
     57  CA         5.2640    5.4430   -4.6320 C.3   110  LEU110      0.1693
     58  C          4.5080    4.7450   -3.4910 C.2   110  LEU110      0.2591
     59  O          4.2210    3.5500   -3.5740 O.2   110  LEU110     -0.2718
     60  CB         6.6940    5.8960   -4.2670 C.3   110  LEU110      0.0284
     61  CG         7.7860    4.8130   -4.1820 C.3   110  LEU110      0.0019
     62  CD1        9.1470    5.5090   -4.0060 C.3   110  LEU110      0.0001
     63  CD2        7.5870    3.8330   -3.0220 C.3   110  LEU110      0.0001
     64  N          4.1150    5.5000   -2.4640 N.am  111  VAL111     -0.1980
     65  CA         3.3800    4.9650   -1.3070 C.3   111  VAL111      0.1595
     66  C          1.9970    4.4480   -1.7470 C.2   111  VAL111      0.2287
     67  O          1.6430    3.3290   -1.3770 O.2   111  VAL111     -0.2864
     68  CB         3.3210    5.9990   -0.1570 C.3   111  VAL111      0.0276
     69  CG1        2.5390    5.4640    1.0500 C.3   111  VAL111      0.0022
     70  CG2        4.7440    6.3250    0.3450 C.3   111  VAL111      0.0022
     71  N          2.4590    1.1060   -3.7510 N.3   114  HIS114     -0.1226
     72  CA         2.6710    0.0470   -2.7660 C.3   114  HIS114      0.1752
     73  C          1.3670   -0.4430   -2.1270 C.2   114  HIS114      0.2595
     74  O          1.1610   -1.6530   -2.0510 O.2   114  HIS114     -0.2718
     75  CB         3.6180    0.5380   -1.6800 C.3   114  HIS114      0.0759
     76  CG         3.9320   -0.5150   -0.6440 C.ar  114  HIS114      0.0818
     77  ND1        5.0330   -1.3300   -0.6600 N.ar  114  HIS114     -0.2268
     78  CD2        3.2380   -0.7930    0.5050 C.ar  114  HIS114      0.1154
     79  CE1        5.0140   -2.0700    0.4610 C.ar  114  HIS114      0.1986
     80  NE2        3.9250   -1.7950    1.2020 N.ar  114  HIS114     -0.2212
     81  N          0.4680    0.4460   -1.6730 N.am  115  GLU115     -0.1979
     82  CA        -0.8330    0.0230   -1.1260 C.3   115  GLU115      0.1602
     83  C         -1.6500   -0.7800   -2.1400 C.2   115  GLU115      0.2287
     84  O         -2.3380   -1.7140   -1.7360 O.2   115  GLU115     -0.2864
     85  CB        -1.6830    1.2040   -0.6220 C.3   115  GLU115      0.0415
     86  CG        -1.3200    1.6530    0.7980 C.3   115  GLU115      0.1163
     87  CD        -0.3370    2.8020    0.7970 C.2   115  GLU115      0.3649
     88  OE1       -0.5750    3.9150    0.3610 O.co2 115  GLU115     -0.2457
     89  OE2        0.8720    2.5210    1.3180 O.co2 115  GLU115     -0.2457
     90  N          0.0290   -4.2900   -2.0910 N.3   118  HIS118     -0.1241
     91  CA        -0.2800   -4.7920   -0.7450 C.3   118  HIS118      0.1621
     92  C         -1.7680   -5.1310   -0.5350 C.2   118  HIS118      0.2264
     93  O         -2.1200   -5.7500    0.4680 O.2   118  HIS118     -0.2867
     94  CB         0.2110   -3.8040    0.3210 C.3   118  HIS118      0.0745
     95  CG         0.7290   -4.4900    1.5650 C.ar  118  HIS118      0.0817
     96  ND1       -0.0090   -4.8340    2.6750 N.ar  118  HIS118     -0.2268
     97  CD2        1.9980   -4.9680    1.7650 C.ar  118  HIS118      0.1154
     98  CE1        0.8070   -5.4810    3.5230 C.ar  118  HIS118      0.1986
     99  NE2        2.0450   -5.5860    3.0170 N.ar  118  HIS118     -0.2212
    100  N          5.8270   -7.9100    1.4910 N.3   124  HIS124     -0.1241
    101  CA         7.1000   -7.2120    1.3140 C.3   124  HIS124      0.1621
    102  C          8.1740   -8.0950    0.6500 C.2   124  HIS124      0.2264
    103  O          8.3870   -9.2290    1.0760 O.2   124  HIS124     -0.2867
    104  CB         7.5750   -6.6430    2.6590 C.3   124  HIS124      0.0745
    105  CG         6.5560   -5.7460    3.3350 C.ar  124  HIS124      0.0817
    106  ND1        6.2640   -5.6680    4.6850 N.ar  124  HIS124     -0.2268
    107  CD2        5.6950   -4.8960    2.6920 C.ar  124  HIS124      0.1154
    108  CE1        5.2380   -4.8080    4.8240 C.ar  124  HIS124      0.1986
    109  NE2        4.8490   -4.3150    3.6360 N.ar  124  HIS124     -0.2212
    110  N         12.4180   -2.5290   -5.5380 N.3   130  ALA130     -0.1231
    111  CA        11.0760   -3.0990   -5.6160 C.3   130  ALA130      0.1694
    112  C         10.0270   -2.1740   -5.0030 C.2   130  ALA130      0.2591
    113  O         10.2380   -1.5690   -3.9520 O.2   130  ALA130     -0.2718
    114  CB        11.0620   -4.4850   -4.9590 C.3   130  ALA130      0.0304
    115  N          8.8510   -2.1380   -5.6240 N.am  131  LEU131     -0.1980
    116  CA         7.7190   -1.3670   -5.1180 C.3   131  LEU131      0.1596
    117  C          7.1690   -1.9700   -3.8180 C.2   131  LEU131      0.2287
    118  O          6.6080   -1.2560   -2.9890 O.2   131  LEU131     -0.2864
    119  CB         6.6780   -1.2800   -6.2410 C.3   131  LEU131      0.0297
    120  CG         5.3970   -0.5160   -5.8640 C.3   131  LEU131      0.0022
    121  CD1        5.6780    0.9110   -5.3640 C.3   131  LEU131      0.0001
    122  CD2        4.4770   -0.4620   -7.0900 C.3   131  LEU131      0.0001
    123  N          9.2680   -3.4250   -1.5510 N.3   133  TYR133     -0.1228
    124  CA        10.3130   -3.2670   -0.5380 C.3   133  TYR133      0.1721
    125  C          9.8280   -2.3970    0.6450 C.2   133  TYR133      0.2437
    126  O          9.2220   -1.3500    0.3980 O.2   133  TYR133     -0.2733
    127  CB        11.5400   -2.6310   -1.1980 C.3   133  TYR133      0.0547
    128  CG        12.8200   -2.7610   -0.4050 C.ar  133  TYR133     -0.0200
    129  CD1       13.3810   -4.0340   -0.1940 C.ar  133  TYR133     -0.0009
    130  CD2       13.4800   -1.6160    0.0730 C.ar  133  TYR133     -0.0009
    131  CE1       14.6150   -4.1660    0.4670 C.ar  133  TYR133      0.0417
    132  CE2       14.7070   -1.7390    0.7470 C.ar  133  TYR133      0.0417
    133  CZ        15.2880   -3.0140    0.9340 C.ar  133  TYR133      0.1957
    134  OH        16.5020   -3.1200    1.5390 O.3   133  TYR133     -0.2866
    135  N         10.0650   -2.7850    1.9140 N.am  134  PRO134     -0.2718
    136  CA         9.4570   -2.1220    3.0660 C.3   134  PRO134      0.1535
    137  C         10.2120   -0.8720    3.5580 C.2   134  PRO134      0.2598
    138  O          9.8490   -0.3480    4.6100 O.2   134  PRO134     -0.2715
    139  CB         9.3590   -3.2200    4.1310 C.3   134  PRO134      0.0310
    140  CG        10.5640   -4.1110    3.8460 C.3   134  PRO134      0.0237
    141  CD        10.7400   -4.0090    2.3290 C.3   134  PRO134      0.0939
    142  N         11.2430   -0.3750    2.8530 N.am  135  LEU135     -0.1964
    143  CA        11.9880    0.8210    3.2650 C.3   135  LEU135      0.1728
    144  C         12.0990    1.8340    2.1260 C.2   135  LEU135      0.2616
    145  O         12.6900    1.5620    1.0840 O.2   135  LEU135     -0.2715
    146  CB        13.3940    0.4730    3.7940 C.3   135  LEU135      0.0311
    147  CG        13.4330   -0.5550    4.9450 C.3   135  LEU135      0.0022
    148  CD1       13.7340   -1.9640    4.4060 C.3   135  LEU135      0.0001
    149  CD2       14.5070   -0.1820    5.9820 C.3   135  LEU135      0.0001
    150  N         11.6030    3.0490    2.3580 N.am  136  TYR136     -0.1974
    151  CA        11.7770    4.1720    1.4330 C.3   136  TYR136      0.1639
    152  C         13.2330    4.6780    1.4590 C.2   136  TYR136      0.2290
    153  O         13.5670    5.5660    2.2380 O.2   136  TYR136     -0.2864
    154  CB        10.7450    5.2470    1.8230 C.3   136  TYR136      0.0560
    155  CG        10.7960    6.6260    1.1660 C.ar  136  TYR136     -0.0198
    156  CD1       10.9820    6.8010   -0.2240 C.ar  136  TYR136     -0.0009
    157  CD2       10.5370    7.7530    1.9710 C.ar  136  TYR136     -0.0009
    158  CE1       10.8960    8.0940   -0.7910 C.ar  136  TYR136      0.0417
    159  CE2       10.4300    9.0370    1.4120 C.ar  136  TYR136      0.0417
    160  CZ        10.5970    9.2140    0.0250 C.ar  136  TYR136      0.1957
    161  OH        10.4160   10.4490   -0.5200 O.3   136  TYR136     -0.2866
@<TRIPOS>BOND
     1   122   120    1
     2   119   120    1
     3   119   116    1
     4   120   121    1
     5   115   116    1
     6   115   112   am
     7   111   110    1
     8   111   112    1
     9   111   114    1
    10   116   117    1
    11    56    57    1
    12   112   113    2
    13    57    60    1
    14    57    58    1
    15    60    61    1
    16    61    62    1
    17    61    63    1
    18   117   118    2
    19    71    72    1
    20    59    58    2
    21    58    64   am
    22    72    73    1
    23    72    75    1
    24    64    65    1
    25    83    84    2
    26    83    82    1
    27    73    74    2
    28    73    81   am
    29    90    91    1
    30    66    67    2
    31    66    65    1
    32    75    76    1
    33    81    82    1
    34   123   124    1
    35    65    68    1
    36   127   124    1
    37   127   128    1
    38    82    85    1
    39   158   156   ar
    40   158   160   ar
    41    91    92    1
    42    91    94    1
    43    77    76   ar
    44    77    79   ar
    45    76    78   ar
    46    85    86    1
    47   124   125    1
    48    92    93    2
    49   161   160    1
    50   128   129   ar
    51   128   130   ar
    52   156   155   ar
    53   129   131   ar
    54    68    70    1
    55    68    69    1
    56   160   159   ar
    57   130   132   ar
    58    94    95    1
    59    88    87   ar
    60   126   125    2
    61    79    80   ar
    62   131   133   ar
    63    78    80   ar
    64   125   135   am
    65   102   103    2
    66   102   101    1
    67   132   133   ar
    68    87    86    1
    69    87    89   ar
    70   133   134    1
    71   145   144    2
    72   155   154    1
    73   155   157   ar
    74    55    52    1
    75   101   100    1
    76   101   104    1
    77   159   157   ar
    78   151   152    1
    79   151   154    1
    80   151   150    1
    81   152   153    2
    82    95    97   ar
    83    95    96   ar
    84    97    99   ar
    85   135   141    1
    86   135   136    1
    87   144   150   am
    88   144   143    1
    89   141   140    1
    90   104   105    1
    91    96    98   ar
    92   107   105   ar
    93   107   109   ar
    94    52    53    1
    95    52    51    1
    96   142   143    1
    97   142   137   am
    98    99    98   ar
    99    53    54    2
   100   136   137    1
   101   136   139    1
   102   143   146    1
   103   105   106   ar
   104    51    43   am
   105    44    43    2
   106   137   138    2
   107    40    37    1
   108   109   108   ar
   109   146   147    1
   110    43    42    1
   111   140   139    1
   112   148   147    1
   113    34    33    1
   114    39    38    2
   115   106   108   ar
   116    38    41   am
   117    38    37    1
   118    42    41    1
   119    42    45    1
   120    37    36    1
   121   147   149    1
   122    32    33    1
   123    32    29    1
   124    36    30   am
   125    33    35    1
   126    47    46   ar
   127    47    49   ar
   128    30    31    2
   129    30    29    1
   130    45    46    1
   131    29    28    1
   132    46    48   ar
   133    49    50   ar
   134    28    23   am
   135    16    15    2
   136    48    50   ar
   137    23    24    2
   138    23    22    1
   139    15    14    1
   140    15    21   am
   141    22    21    1
   142    22    25    1
   143    14    17    1
   144    14    13    1
   145    27    25    1
   146    17    18    1
   147    25    26    1
   148    12    11    1
   149    18    20   am
   150    18    19    2
   151     9    11   ar
   152     9     7   ar
   153    11    10   ar
   154     7     6   ar
   155    10     8   ar
   156     6     8   ar
   157     6     5    1
   158     4     3    2
   159     5     2    1
   160     3     2    1
   161     1     2    1
