@<TRIPOS>MOLECULE
tmp/2jsdA00.pdb
 147 147 0 0 0
SMALL
GASTEIGER

@<TRIPOS>ATOM
      1  N         14.2860   -1.6920    6.8070 N.3    75  GLY75      -0.1210
      2  CA        13.2340   -2.3840    7.5470 C.3    75  GLY75       0.1956
      3  C         11.8710   -2.0730    6.9510 C.2    75  GLY75       0.2613
      4  O         11.6150   -2.3780    5.7880 O.2    75  GLY75      -0.2717
      5  N         11.0370   -1.4260    7.7620 N.am   76  THR76      -0.1938
      6  CA         9.6530   -1.0250    7.4540 C.3    76  THR76       0.2028
      7  C          9.6210   -0.0430    6.2910 C.2    76  THR76       0.2642
      8  O          9.9300    1.1320    6.4910 O.2    76  THR76      -0.2714
      9  CB         8.9790   -0.3730    8.6710 C.3    76  THR76       0.1808
     10  OG1        9.0780   -1.2190    9.7980 O.3    76  THR76      -0.2208
     11  CG2        7.4990   -0.0780    8.3930 C.3    76  THR76       0.0379
     12  N          9.2990   -0.5010    5.0870 N.am   77  LEU77      -0.1963
     13  CA         9.1330    0.3910    3.9310 C.3    77  LEU77       0.1728
     14  C          7.8150    1.1530    4.0010 C.2    77  LEU77       0.2616
     15  O          7.7590    2.3700    3.8240 O.2    77  LEU77      -0.2715
     16  CB         9.2560   -0.4050    2.6240 C.3    77  LEU77       0.0311
     17  CG        10.4640   -1.3580    2.5580 C.3    77  LEU77       0.0022
     18  CD1       10.5200   -1.9430    1.1490 C.3    77  LEU77       0.0001
     19  CD2       11.7940   -0.6630    2.8890 C.3    77  LEU77       0.0001
     20  N          6.7620    0.4150    4.3200 N.am   78  ALA78      -0.1963
     21  CA         5.4080    0.9300    4.3550 C.3    78  ALA78       0.1728
     22  C          4.6740    0.2180    5.4740 C.2    78  ALA78       0.2616
     23  O          4.7870   -1.0050    5.5770 O.2    78  ALA78      -0.2715
     24  CB         4.7820    0.6800    2.9810 C.3    78  ALA78       0.0334
     25  N          3.9650    0.9710    6.3110 N.am   79  HIS79      -0.1959
     26  CA         3.0280    0.4010    7.2670 C.3    79  HIS79       0.1787
     27  C          1.6410    1.0440    7.1010 C.2    79  HIS79       0.2620
     28  O          1.4270    2.2480    7.3000 O.2    79  HIS79      -0.2715
     29  CB         3.5810    0.4570    8.7050 C.3    79  HIS79       0.0785
     30  CG         2.7510    1.2540    9.6790 C.ar   79  HIS79       0.0821
     31  ND1        1.6090    0.8440   10.3320 N.ar   79  HIS79      -0.2267
     32  CD2        2.8420    2.6050    9.8430 C.ar   79  HIS79       0.1154
     33  CE1        1.0510    1.9330   10.8940 C.ar   79  HIS79       0.1986
     34  NE2        1.7760    3.0370   10.6310 N.ar   79  HIS79      -0.2212
     35  N          0.6890    0.1730    6.8140 N.am   80  ALA80      -0.1977
     36  CA        -0.7170    0.4440    6.6920 C.3    80  ALA80       0.1597
     37  C         -1.4250    0.2540    8.0320 C.2    80  ALA80       0.2287
     38  O         -0.9280   -0.4220    8.9490 O.2    80  ALA80      -0.2864
     39  CB        -1.2380   -0.5340    5.6370 C.3    80  ALA80       0.0319
     40  N          5.4390   -2.6680   -6.0330 N.3   110  THR110     -0.1203
     41  CA         5.6270   -3.9290   -5.2790 C.3   110  THR110      0.1994
     42  C          5.3220   -3.7790   -3.7890 C.2   110  THR110      0.2617
     43  O          4.7490   -4.6860   -3.1970 O.2   110  THR110     -0.2717
     44  CB         7.0460   -4.4750   -5.4890 C.3   110  THR110      0.1784
     45  OG1        7.3210   -4.4150   -6.8760 O.3   110  THR110     -0.2211
     46  CG2        7.2070   -5.9270   -5.0060 C.3   110  THR110      0.0376
     47  N          5.6730   -2.6350   -3.2010 N.am  111  VAL111     -0.1979
     48  CA         5.3450   -2.2870   -1.8070 C.3   111  VAL111      0.1595
     49  C          3.8390   -2.0310   -1.6230 C.2   111  VAL111      0.2287
     50  O          3.2500   -2.4650   -0.6310 O.2   111  VAL111     -0.2864
     51  CB         6.1660   -1.0470   -1.3700 C.3   111  VAL111      0.0276
     52  CG1        5.6550   -0.3790   -0.0870 C.3   111  VAL111      0.0022
     53  CG2        7.6370   -1.4350   -1.1560 C.3   111  VAL111      0.0022
     54  N          0.8080   -4.9680   -1.4860 N.3   114  HIS114     -0.1226
     55  CA         0.8390   -5.5360   -0.1440 C.3   114  HIS114      0.1752
     56  C          0.1560   -4.6120    0.8910 C.2   114  HIS114      0.2595
     57  O         -0.7560   -5.0730    1.5680 O.2   114  HIS114     -0.2718
     58  CB         2.3000   -5.8820    0.1720 C.3   114  HIS114      0.0759
     59  CG         2.5860   -6.5010    1.5140 C.ar  114  HIS114      0.0818
     60  ND1        3.6160   -7.3760    1.7860 N.ar  114  HIS114     -0.2268
     61  CD2        2.1120   -6.0820    2.7230 C.ar  114  HIS114      0.1154
     62  CE1        3.8200   -7.3960    3.1120 C.ar  114  HIS114      0.1986
     63  NE2        2.9430   -6.5890    3.7110 N.ar  114  HIS114     -0.2212
     64  N          0.5460   -3.3390    1.0460 N.am  115  GLU115     -0.1979
     65  CA        -0.0660   -2.4160    2.0160 C.3   115  GLU115      0.1602
     66  C         -1.5470   -2.0890    1.8050 C.2   115  GLU115      0.2287
     67  O         -2.2900   -1.9550    2.7840 O.2   115  GLU115     -0.2864
     68  CB         0.7260   -1.1260    1.9450 C.3   115  GLU115      0.0415
     69  CG         2.0600   -1.3420    2.6450 C.3   115  GLU115      0.1163
     70  CD         1.9170   -0.9330    4.1030 C.2   115  GLU115      0.3649
     71  OE1        1.9000    0.2930    4.3000 O.co2 115  GLU115     -0.2457
     72  OE2        1.6880   -1.7800    5.0000 O.co2 115  GLU115     -0.2457
     73  N         -3.4570   -4.7240    3.6090 N.3   118  HIS118     -0.1241
     74  CA        -3.6630   -4.5870    5.0550 C.3   118  HIS118      0.1621
     75  C         -4.8500   -3.7030    5.4160 C.2   118  HIS118      0.2264
     76  O         -5.5420   -3.9800    6.3980 O.2   118  HIS118     -0.2867
     77  CB        -2.4220   -3.9590    5.6620 C.3   118  HIS118      0.0745
     78  CG        -1.3160   -4.9380    5.8550 C.ar  118  HIS118      0.0817
     79  ND1       -1.3840   -6.1730    6.4690 N.ar  118  HIS118     -0.2268
     80  CD2       -0.0230   -4.7160    5.4970 C.ar  118  HIS118      0.1154
     81  CE1       -0.1350   -6.6670    6.5050 C.ar  118  HIS118      0.1986
     82  NE2        0.7240   -5.8070    5.9310 N.ar  118  HIS118     -0.2212
     83  N          0.2610  -10.5060    7.3900 N.3   124  HIS124     -0.1297
     84  CA         1.5360  -11.0930    6.8590 C.3   124  HIS124      0.1306
     85  C          1.5460  -12.6220    6.7000 C.3   124  HIS124      0.2013
     86  O          1.5770  -13.2420    7.7510 O.3   124  HIS124     -0.2188
     87  CB         2.8040  -10.5870    7.5830 C.3   124  HIS124      0.0691
     88  CG         2.7600   -9.0810    7.6420 C.ar  124  HIS124      0.0814
     89  ND1        2.3190   -8.2650    8.6890 N.ar  124  HIS124     -0.2268
     90  CD2        3.3880   -8.2700    6.7390 C.ar  124  HIS124      0.1154
     91  CE1        2.8230   -7.0460    8.4400 C.ar  124  HIS124      0.1986
     92  NE2        3.4690   -7.0050    7.2740 N.ar  124  HIS124     -0.2212
     93  N          1.9070  -12.4910   -1.4230 N.3   131  LEU131     -0.1245
     94  CA         2.1800  -11.0560   -1.4910 C.3   131  LEU131      0.1561
     95  C          2.3060  -10.3980   -0.1160 C.2   131  LEU131      0.2260
     96  O          3.1330   -9.4950    0.0300 O.2   131  LEU131     -0.2867
     97  CB         1.1250  -10.4110   -2.3940 C.3   131  LEU131      0.0270
     98  CG         1.2190   -8.8850   -2.6030 C.3   131  LEU131      0.0019
     99  CD1        2.5390   -8.4490   -3.2570 C.3   131  LEU131      0.0001
    100  CD2        0.0390   -8.4400   -3.4720 C.3   131  LEU131      0.0001
    101  N          3.8470  -11.4120    2.2400 N.3   133  TYR133     -0.1228
    102  CA         5.1840  -11.7590    2.7420 C.3   133  TYR133      0.1721
    103  C          5.8980  -10.6120    3.5020 C.2   133  TYR133      0.2437
    104  O          6.2000   -9.5740    2.9010 O.2   133  TYR133     -0.2733
    105  CB         6.0660  -12.2660    1.5950 C.3   133  TYR133      0.0547
    106  CG         7.0890  -13.2880    2.0550 C.ar  133  TYR133     -0.0200
    107  CD1        8.0830  -12.9690    3.0030 C.ar  133  TYR133     -0.0009
    108  CD2        6.9640  -14.6110    1.6090 C.ar  133  TYR133     -0.0009
    109  CE1        8.9270  -13.9720    3.5220 C.ar  133  TYR133      0.0417
    110  CE2        7.8130  -15.6180    2.1010 C.ar  133  TYR133      0.0417
    111  CZ         8.7870  -15.3050    3.0750 C.ar  133  TYR133      0.1957
    112  OH         9.5650  -16.2910    3.5980 O.3   133  TYR133     -0.2866
    113  N          6.2350  -10.7850    4.7990 N.am  134  PRO134     -0.2718
    114  CA         6.9410   -9.7850    5.6000 C.3   134  PRO134      0.1535
    115  C          8.4570   -9.7970    5.2940 C.2   134  PRO134      0.2599
    116  O          9.2410  -10.3310    6.0740 O.2   134  PRO134     -0.2715
    117  CB         6.6170  -10.1460    7.0620 C.3   134  PRO134      0.0310
    118  CG         6.4520  -11.6650    7.0130 C.3   134  PRO134      0.0237
    119  CD         5.9130  -11.9510    5.6140 C.3   134  PRO134      0.0939
    120  N          8.8770   -9.1980    4.1630 N.am  135  THR135     -0.1937
    121  CA        10.3020   -9.0320    3.7990 C.3   135  THR135      0.2028
    122  C         10.5730   -8.1310    2.5810 C.2   135  THR135      0.2642
    123  O         11.6860   -8.0820    2.0780 O.2   135  THR135     -0.2714
    124  CB        10.9670  -10.4290    3.6110 C.3   135  THR135      0.1808
    125  OG1       12.3530  -10.3300    3.8240 O.3   135  THR135     -0.2208
    126  CG2       10.7260  -11.0310    2.2210 C.3   135  THR135      0.0379
    127  N          9.5620   -7.4230    2.0580 N.am  136  TYR136     -0.1959
    128  CA         9.6130   -6.6990    0.7660 C.3   136  TYR136      0.1771
    129  C          9.9220   -7.6680   -0.3900 C.2   136  TYR136      0.2619
    130  O         10.9900   -7.6700   -0.9930 O.2   136  TYR136     -0.2715
    131  CB        10.5240   -5.4620    0.8310 C.3   136  TYR136      0.0574
    132  CG        10.8340   -4.7860   -0.5050 C.ar  136  TYR136     -0.0198
    133  CD1        9.8090   -4.2870   -1.3340 C.ar  136  TYR136     -0.0009
    134  CD2       12.1740   -4.6490   -0.9170 C.ar  136  TYR136     -0.0009
    135  CE1       10.1270   -3.6700   -2.5630 C.ar  136  TYR136      0.0417
    136  CE2       12.5000   -4.0460   -2.1440 C.ar  136  TYR136      0.0417
    137  CZ        11.4740   -3.5480   -2.9710 C.ar  136  TYR136      0.1957
    138  OH        11.7860   -2.9460   -4.1540 O.3   136  TYR136     -0.2866
    139  N          8.9680   -8.5640   -0.6680 N.am  137  LYS137     -0.1977
    140  CA         9.2260   -9.6770   -1.5860 C.3   137  LYS137      0.1596
    141  C          9.0630   -9.2300   -3.0330 C.2   137  LYS137      0.2287
    142  O          8.1040   -8.5520   -3.4080 O.2   137  LYS137     -0.2864
    143  CB         8.3900  -10.9140   -1.2410 C.3   137  LYS137      0.0298
    144  CG         8.7690  -12.1860   -2.0290 C.3   137  LYS137      0.0038
    145  CD        10.1200  -12.7720   -1.5670 C.3   137  LYS137      0.0206
    146  CE        10.9830  -13.2810   -2.7280 C.3   137  LYS137      0.1093
    147  NZ        10.4580  -14.5340   -3.3180 N.3   137  LYS137     -0.1314
@<TRIPOS>BOND
     1    45    44    1
     2    40    41    1
     3    44    41    1
     4    44    46    1
     5    41    42    1
     6   138   137    1
     7    42    47   am
     8    42    43    2
     9   100    98    1
    10   142   141    2
    11   147   146    1
    12    99    98    1
    13    47    48    1
    14   141   140    1
    15   137   135   ar
    16   137   136   ar
    17   146   145    1
    18    98    97    1
    19   135   133   ar
    20    97    94    1
    21   136   134   ar
    22   144   145    1
    23   144   143    1
    24    48    49    1
    25    48    51    1
    26    49    50    2
    27   140   143    1
    28   140   139    1
    29    94    93    1
    30    94    95    1
    31    54    55    1
    32    51    53    1
    33    51    52    1
    34   133   132   ar
    35   130   129    2
    36   134   132   ar
    37   139   129   am
    38   132   131    1
    39   129   128    1
    40    55    58    1
    41    55    56    1
    42    95    96    2
    43    58    59    1
    44   128   131    1
    45   128   127    1
    46    56    64   am
    47    56    57    2
    48    64    65    1
    49    18    17    1
    50    59    60   ar
    51    59    61   ar
    52   105   106    1
    53   105   102    1
    54   108   106   ar
    55   108   110   ar
    56    60    62   ar
    57    66    65    1
    58    66    67    2
    59    68    65    1
    60    68    69    1
    61   106   107   ar
    62   127   122   am
    63   123   122    2
    64   110   111   ar
    65   126   124    1
    66   101   102    1
    67    17    16    1
    68    17    19    1
    69   122   121    1
    70    16    13    1
    71    69    70    1
    72    61    63   ar
    73   102   103    1
    74   104   103    2
    75    24    21    1
    76   107   109   ar
    77   111   109   ar
    78   111   112    1
    79    62    63   ar
    80   103   113   am
    81    73    74    1
    82   124   121    1
    83   124   125    1
    84   121   120    1
    85    15    14    2
    86    13    14    1
    87    13    12    1
    88    14    20   am
    89    70    71   ar
    90    70    72   ar
    91   120   115   am
    92    20    21    1
    93    21    22    1
    94   113   114    1
    95   113   119    1
    96    74    75    1
    97    74    77    1
    98    12     7   am
    99   115   114    1
   100   115   116    2
   101    75    76    2
   102    22    23    2
   103    22    25   am
   104    80    78   ar
   105    80    82   ar
   106   114   117    1
   107   119   118    1
   108    39    36    1
   109    77    78    1
   110     4     3    2
   111    78    79   ar
   112    82    81   ar
   113     7     8    2
   114     7     6    1
   115    25    26    1
   116    79    81   ar
   117    36    35    1
   118    36    37    1
   119    85    84    1
   120    85    86    1
   121    90    92   ar
   122    90    88   ar
   123     1     2    1
   124    35    27   am
   125    84    83    1
   126    84    87    1
   127     3     2    1
   128     3     5   am
   129   118   117    1
   130    27    26    1
   131    27    28    2
   132    26    29    1
   133    92    91   ar
   134     6     5    1
   135     6     9    1
   136    87    88    1
   137    88    89   ar
   138    37    38    2
   139    11     9    1
   140    91    89   ar
   141     9    10    1
   142    29    30    1
   143    30    32   ar
   144    30    31   ar
   145    32    34   ar
   146    31    33   ar
   147    34    33   ar
