@<TRIPOS>MOLECULE
tmp/2jt2A00.pdb
 201 192 0 0 0
SMALL
GASTEIGER

@<TRIPOS>ATOM
      1  N         -4.1740   13.4620   -0.3350 N.3    17  ILE17      -0.1231
      2  CA        -5.6330   13.1720   -0.2570 C.3    17  ILE17       0.1692
      3  C         -6.1660   13.5020    1.1370 C.2    17  ILE17       0.2592
      4  O         -7.2680   13.9880    1.2780 O.2    17  ILE17      -0.2718
      5  CB        -5.8950   11.6940   -0.5610 C.3    17  ILE17       0.0266
      6  CG1       -7.4070   11.4420   -0.5900 C.3    17  ILE17       0.0019
      7  CG2       -5.2590   10.8270    0.5270 C.3    17  ILE17       0.0020
      8  CD1       -7.7330   10.3650   -1.6270 C.3    17  ILE17       0.0001
      9  N         -5.4240   13.2230    2.1750 N.am   18  HIS18      -0.1976
     10  CA        -5.9430   13.5110    3.5410 C.3    18  HIS18       0.1656
     11  C         -5.5900   14.9350    3.9780 C.2    18  HIS18       0.2291
     12  O         -6.4320   15.6690    4.4590 O.2    18  HIS18      -0.2864
     13  CB        -5.3140   12.5340    4.5370 C.3    18  HIS18       0.0771
     14  CG        -5.9490   11.1780    4.4000 C.ar   18  HIS18       0.0820
     15  ND1       -7.3010   10.9710    4.6210 N.ar   18  HIS18      -0.2267
     16  CD2       -5.4260    9.9430    4.0960 C.ar   18  HIS18       0.1154
     17  CE1       -7.5480    9.6610    4.4530 C.ar   18  HIS18       0.1986
     18  NE2       -6.4390    8.9910    4.1330 N.ar   18  HIS18      -0.2212
     19  N         -7.1780    4.5360    7.2320 N.3    57  HIS57      -0.1226
     20  CA        -7.4500    5.1520    5.9070 C.3    57  HIS57       0.1752
     21  C         -6.1220    5.3740    5.1810 C.2    57  HIS57       0.2596
     22  O         -6.0600    6.0420    4.1670 O.2    57  HIS57      -0.2718
     23  CB        -8.1630    6.4930    6.1020 C.3    57  HIS57       0.0759
     24  CG        -9.5670    6.2500    6.5800 C.ar   57  HIS57       0.0818
     25  ND1      -10.5390    5.6830    5.7700 N.ar   57  HIS57      -0.2268
     26  CD2      -10.1800    6.4930    7.7850 C.ar   57  HIS57       0.1154
     27  CE1      -11.6730    5.6040    6.4900 C.ar   57  HIS57       0.1986
     28  NE2      -11.5090    6.0850    7.7260 N.ar   57  HIS57      -0.2212
     29  N         -5.0570    4.8160    5.6950 N.am   58  SER58      -0.1952
     30  CA        -3.7300    4.9900    5.0400 C.3    58  SER58       0.1924
     31  C         -2.6150    4.6330    6.0270 C.2    58  SER58       0.2314
     32  O         -2.7300    4.8590    7.2160 O.2    58  SER58      -0.2863
     33  CB        -3.5670    6.4440    4.5980 C.3    58  SER58       0.2116
     34  OG        -4.3700    7.2790    5.4230 O.3    58  SER58      -0.2180
     35  N          0.1700    8.3310    4.3970 N.3    70  THR70      -0.1218
     36  CA        -0.0430    7.6620    3.0810 C.3    70  THR70       0.1862
     37  C          1.2950    7.3390    2.4190 C.2    70  THR70       0.2287
     38  O          1.6840    7.9650    1.4540 O.2    70  THR70      -0.2866
     39  CB        -0.8550    8.5830    2.1690 C.3    70  THR70       0.1770
     40  OG1       -2.0840    8.9090    2.8020 O.3    70  THR70      -0.2211
     41  CG2       -1.1340    7.8730    0.8430 C.3    70  THR70       0.0375
     42  N          1.9950    4.0200    1.7170 N.3    72  GLU72      -0.1231
     43  CA         1.7440    2.7170    1.0400 C.3    72  GLU72       0.1699
     44  C          1.7820    2.8880   -0.4830 C.2    72  GLU72       0.2592
     45  O          2.0680    1.9570   -1.2100 O.2    72  GLU72      -0.2718
     46  CB         0.3690    2.1890    1.4660 C.3    72  GLU72       0.0402
     47  CG        -0.7170    3.2210    1.1400 C.3    72  GLU72       0.1161
     48  CD        -1.0750    4.0060    2.4010 C.2    72  GLU72       0.3649
     49  OE1       -0.2430    4.0720    3.2900 O.co2  72  GLU72      -0.2457
     50  OE2       -2.1730    4.5330    2.4540 O.co2  72  GLU72      -0.2457
     51  N          1.4930    4.0600   -0.9760 N.am   73  HIS73      -0.1976
     52  CA         1.5120    4.2680   -2.4500 C.3    73  HIS73       0.1656
     53  C          2.9530    4.1950   -2.9520 C.2    73  HIS73       0.2291
     54  O          3.3290    3.2770   -3.6540 O.2    73  HIS73      -0.2864
     55  CB         0.9080    5.6350   -2.7860 C.3    73  HIS73       0.0771
     56  CG        -0.5910    5.5360   -2.7210 C.ar   73  HIS73       0.0820
     57  ND1       -1.4300    6.5450   -3.1770 N.ar   73  HIS73      -0.2267
     58  CD2       -1.4160    4.5440   -2.2610 C.ar   73  HIS73       0.1154
     59  CE1       -2.6990    6.1340   -2.9820 C.ar   73  HIS73       0.1986
     60  NE2       -2.7420    4.9230   -2.4290 N.ar   73  HIS73      -0.2212
     61  N         -7.6150    5.3530   -5.7160 N.3   178  THR178     -0.1203
     62  CA        -8.1490    5.1120   -4.3410 C.3   178  THR178      0.1994
     63  C         -9.6770    5.1760   -4.4410 C.2   178  THR178      0.2618
     64  O        -10.2070    5.6810   -5.4100 O.2   178  THR178     -0.2717
     65  CB        -7.6310    6.1850   -3.3710 C.3   178  THR178      0.1784
     66  OG1       -8.1600    5.9400   -2.0760 O.3   178  THR178     -0.2211
     67  CG2       -8.0730    7.5660   -3.8490 C.3   178  THR178      0.0376
     68  N        -10.4050    4.6670   -3.4810 N.am  179  PHE179     -0.1961
     69  CA       -11.8930    4.7230   -3.6080 C.3   179  PHE179      0.1771
     70  C        -12.5620    4.8610   -2.2430 C.2   179  PHE179      0.2619
     71  O        -12.1170    4.3180   -1.2510 O.2   179  PHE179     -0.2715
     72  CB       -12.4050    3.4510   -4.2910 C.3   179  PHE179      0.0574
     73  CG       -12.3630    2.2930   -3.3200 C.ar  179  PHE179     -0.0200
     74  CD1      -11.1730    1.5800   -3.1380 C.ar  179  PHE179     -0.0042
     75  CD2      -13.5140    1.9310   -2.6080 C.ar  179  PHE179     -0.0042
     76  CE1      -11.1310    0.5080   -2.2400 C.ar  179  PHE179     -0.0003
     77  CE2      -13.4720    0.8550   -1.7090 C.ar  179  PHE179     -0.0003
     78  CZ       -12.2800    0.1460   -1.5240 C.ar  179  PHE179     -0.0000
     79  N        -13.6490    5.5850   -2.2060 N.am  180  ALA180     -0.1977
     80  CA       -14.3920    5.7750   -0.9310 C.3   180  ALA180      0.1597
     81  C        -15.8960    5.7670   -1.2270 C.2   180  ALA180      0.2287
     82  O        -16.3230    6.0290   -2.3350 O.2   180  ALA180     -0.2864
     83  CB       -13.9990    7.1130   -0.3020 C.3   180  ALA180      0.0319
     84  N        -19.7680    7.2510   -0.7040 N.3   182  ASP182     -0.1239
     85  CA       -20.4040    8.5300   -0.2880 C.3   182  ASP182      0.1674
     86  C        -20.7210    8.4870    1.2070 C.2   182  ASP182      0.2266
     87  O        -20.5930    9.4750    1.9030 O.2   182  ASP182     -0.2867
     88  CB       -21.6890    8.7290   -1.0960 C.3   182  ASP182      0.1410
     89  CG       -22.7080    9.5260   -0.2770 C.2   182  ASP182      0.3668
     90  OD1      -23.1680    9.0110    0.7280 O.co2 182  ASP182     -0.2456
     91  OD2      -23.0150   10.6380   -0.6760 O.co2 182  ASP182     -0.2456
     92  N        -17.3140    9.0740    3.0980 N.3   185  ILE185     -0.1245
     93  CA       -16.7770   10.4610    3.0420 C.3   185  ILE185      0.1561
     94  C        -17.1660   11.2210    4.3150 C.2   185  ILE185      0.2260
     95  O        -16.3280   11.7670    5.0050 O.2   185  ILE185     -0.2867
     96  CB       -17.3530   11.1770    1.8230 C.3   185  ILE185      0.0252
     97  CG1      -17.0900   10.3350    0.5720 C.3   185  ILE185      0.0019
     98  CG2      -16.6840   12.5440    1.6660 C.3   185  ILE185      0.0019
     99  CD1      -17.4330   11.1510   -0.6760 C.3   185  ILE185      0.0001
    100  N        -14.7440   10.2320    6.8110 N.3   188  ILE188     -0.1231
    101  CA       -13.3660   10.6620    6.4480 C.3   188  ILE188      0.1692
    102  C        -13.2160   12.1670    6.6800 C.2   188  ILE188      0.2591
    103  O        -12.1400   12.6520    6.9610 O.2   188  ILE188     -0.2718
    104  CB       -13.1100   10.3430    4.9750 C.3   188  ILE188      0.0266
    105  CG1      -12.9090    8.8350    4.8080 C.3   188  ILE188      0.0019
    106  CG2      -11.8570   11.0790    4.5020 C.3   188  ILE188      0.0020
    107  CD1      -13.0190    8.4660    3.3280 C.3   188  ILE188      0.0001
    108  N        -14.2770   12.9180    6.5670 N.am  189  LYS189     -0.1980
    109  CA       -14.1630   14.3870    6.7860 C.3   189  LYS189      0.1596
    110  C        -14.2890   14.6910    8.2780 C.2   189  LYS189      0.2287
    111  O        -13.4570   15.3610    8.8530 O.2   189  LYS189     -0.2864
    112  CB       -15.2800   15.1060    6.0290 C.3   189  LYS189      0.0298
    113  CG       -14.9540   15.1400    4.5350 C.3   189  LYS189      0.0038
    114  CD       -15.8900   16.1260    3.8390 C.3   189  LYS189      0.0206
    115  CE       -15.4540   16.3060    2.3850 C.3   189  LYS189      0.1093
    116  NZ       -16.5560   16.9460    1.6120 N.3   189  LYS189     -0.1314
    117  N         -9.1150   12.9760    4.3850 N.3   194  GLY194     -0.1225
    118  CA        -9.5940   13.1400    2.9800 C.3   194  GLY194      0.1811
    119  C         -9.7920   14.6220    2.6370 C.2   194  GLY194      0.2280
    120  O        -10.5610   14.9570    1.7570 O.2   194  GLY194     -0.2866
    121  N         -9.4460   14.7990   -0.9120 N.3   197  GLY197     -0.1210
    122  CA       -10.1480   13.7940   -1.7650 C.3   197  GLY197      0.1956
    123  C        -11.0440   14.4970   -2.7840 C.2   197  GLY197      0.2613
    124  O        -11.8790   15.3080   -2.4390 O.2   197  GLY197     -0.2717
    125  N        -10.8780   14.1840   -4.0430 N.am  198  SER198     -0.1938
    126  CA       -11.7230   14.8260   -5.0890 C.3   198  SER198      0.2055
    127  C        -12.1180   13.7770   -6.1330 C.2   198  SER198      0.2642
    128  O        -11.5660   12.6960   -6.1790 O.2   198  SER198     -0.2714
    129  CB       -10.9350   15.9500   -5.7630 C.3   198  SER198      0.2130
    130  OG       -10.5830   15.5540   -7.0840 O.3   198  SER198     -0.2179
    131  N        -13.0630   14.0890   -6.9790 N.am  199  LEU199     -0.1977
    132  CA       -13.4800   13.1100   -8.0220 C.3   199  LEU199      0.1596
    133  C        -12.3390   12.9570   -9.0220 C.2   199  LEU199      0.2287
    134  O        -12.3570   12.1010   -9.8870 O.2   199  LEU199     -0.2864
    135  CB       -14.7300   13.6210   -8.7450 C.3   199  LEU199      0.0297
    136  CG       -15.8610   13.8290   -7.7360 C.3   199  LEU199      0.0022
    137  CD1      -17.1240   14.2850   -8.4700 C.3   199  LEU199      0.0001
    138  CD2      -16.1460   12.5130   -7.0110 C.3   199  LEU199      0.0001
    139  N         -9.9770   10.5940   -6.4500 N.3   202  THR202     -0.1218
    140  CA       -10.6170    9.5320   -5.6280 C.3   202  THR202      0.1862
    141  C        -11.7970    8.9170   -6.3790 C.2   202  THR202      0.2287
    142  O        -12.4710    9.5730   -7.1500 O.2   202  THR202     -0.2866
    143  CB       -11.1230   10.1380   -4.3180 C.3   202  THR202      0.1770
    144  OG1      -10.0680   10.1510   -3.3670 O.3   202  THR202     -0.2211
    145  CG2      -12.2870    9.2990   -3.7850 C.3   202  THR202      0.0375
    146  N        -15.2320    7.9670   -5.8970 N.3   204  VAL204     -0.1245
    147  CA       -16.3900    8.0370   -4.9630 C.3   204  VAL204      0.1561
    148  C        -17.5420    7.2060   -5.5310 C.2   204  VAL204      0.2260
    149  O        -17.9260    7.3420   -6.6790 O.2   204  VAL204     -0.2867
    150  CB       -16.8210    9.4980   -4.7830 C.3   204  VAL204      0.0252
    151  CG1      -18.1460    9.5550   -4.0200 C.3   204  VAL204      0.0019
    152  CG2      -15.7520   10.2560   -3.9870 C.3   204  VAL204      0.0019
    153  N        -20.0530    8.0670   -8.5060 N.3   211  TYR211     -0.1241
    154  CA       -20.0320    9.5540   -8.5860 C.3   211  TYR211      0.1605
    155  C        -19.1110   10.0000   -9.7220 C.2   211  TYR211      0.2264
    156  O        -19.4740   10.8180  -10.5420 O.2   211  TYR211     -0.2867
    157  CB       -19.5160   10.1260   -7.2710 C.3   211  TYR211      0.0534
    158  CG       -20.6570   10.2920   -6.2950 C.ar  211  TYR211     -0.0201
    159  CD1      -21.3920    9.1750   -5.8790 C.ar  211  TYR211     -0.0009
    160  CD2      -20.9750   11.5630   -5.8000 C.ar  211  TYR211     -0.0009
    161  CE1      -22.4450    9.3300   -4.9680 C.ar  211  TYR211      0.0417
    162  CE2      -22.0270   11.7180   -4.8890 C.ar  211  TYR211      0.0417
    163  CZ       -22.7620   10.6010   -4.4730 C.ar  211  TYR211      0.1957
    164  OH       -23.7960   10.7530   -3.5710 O.3   211  TYR211     -0.2866
    165  N         -7.2310   -1.8020   -5.9380 N.3   225  HIS225     -0.1226
    166  CA        -6.5070   -0.7740   -5.1510 C.3   225  HIS225      0.1752
    167  C         -6.1630   -1.3500   -3.7780 C.2   225  HIS225      0.2595
    168  O         -5.1410   -1.0320   -3.2010 O.2   225  HIS225     -0.2718
    169  CB        -7.3730    0.4680   -4.9670 C.3   225  HIS225      0.0759
    170  CG        -6.4690    1.6160   -4.6320 C.ar  225  HIS225      0.0818
    171  ND1       -5.9500    2.4590   -5.6020 N.ar  225  HIS225     -0.2268
    172  CD2       -5.9110    2.0170   -3.4470 C.ar  225  HIS225      0.1154
    173  CE1       -5.1150    3.3140   -4.9870 C.ar  225  HIS225      0.1986
    174  NE2       -5.0510    3.0830   -3.6730 N.ar  225  HIS225     -0.2212
    175  N         -6.9950   -2.2110   -3.2550 N.am  226  LYS226     -0.1980
    176  CA        -6.6870   -2.8140   -1.9270 C.3   226  LYS226      0.1596
    177  C         -5.4350   -3.6740   -2.0790 C.2   226  LYS226      0.2287
    178  O         -4.5900   -3.7250   -1.2080 O.2   226  LYS226     -0.2864
    179  CB        -7.8600   -3.6830   -1.4630 C.3   226  LYS226      0.0298
    180  CG        -8.9300   -2.8010   -0.8070 C.3   226  LYS226      0.0038
    181  CD        -8.4050   -2.2340    0.5170 C.3   226  LYS226      0.0206
    182  CE        -9.5670   -2.0600    1.4970 C.3   226  LYS226      0.1093
    183  NZ        -9.2760   -0.9160    2.4060 N.3   226  LYS226     -0.1314
    184  N         -2.5340   -1.1590   -2.1320 N.3   229  ASP229     -0.1239
    185  CA        -2.2280   -0.6550   -0.7620 C.3   229  ASP229      0.1674
    186  C         -1.6690   -1.7890    0.1000 C.2   229  ASP229      0.2266
    187  O         -0.8600   -1.5690    0.9850 O.2   229  ASP229     -0.2867
    188  CB        -3.5080   -0.1220   -0.1180 C.3   229  ASP229      0.1410
    189  CG        -3.8600    1.2390   -0.7180 C.2   229  ASP229      0.3668
    190  OD1       -3.0090    1.8130   -1.3780 O.co2 229  ASP229     -0.2456
    191  OD2       -4.9740    1.6860   -0.5050 O.co2 229  ASP229     -0.2456
    192  N         -5.5590   -1.4970    6.2970 N.3   252  HIS252     -0.1241
    193  CA        -4.1650   -1.0960    6.6450 C.3   252  HIS252      0.1621
    194  C         -3.8040   -1.6350    8.0320 C.2   252  HIS252      0.2264
    195  O         -2.7080   -2.1090    8.2560 O.2   252  HIS252     -0.2867
    196  CB        -4.0520    0.4300    6.6420 C.3   252  HIS252      0.0745
    197  CG        -3.9460    0.9190    5.2220 C.ar  252  HIS252      0.0817
    198  ND1       -2.7780    0.7930    4.4840 N.ar  252  HIS252     -0.2268
    199  CD2       -4.8520    1.5340    4.3900 C.ar  252  HIS252      0.1154
    200  CE1       -3.0060    1.3210    3.2690 C.ar  252  HIS252      0.1986
    201  NE2       -4.2520    1.7860    3.1620 N.ar  252  HIS252     -0.2212
@<TRIPOS>BOND
     1   156   155    2
     2   134   133    2
     3   155   154    1
     4   133   132    1
     5   135   132    1
     6   135   136    1
     7   154   153    1
     8   154   157    1
     9   137   136    1
    10   132   131    1
    11   136   138    1
    12   157   158    1
    13   142   141    2
    14   130   129    1
    15   131   127   am
    16   149   148    2
    17   139   140    1
    18   141   140    1
    19   158   159   ar
    20   158   160   ar
    21   128   127    2
    22   127   126    1
    23   165   166    1
    24   146   147    1
    25   159   161   ar
    26   160   162   ar
    27   129   126    1
    28    61    62    1
    29   140   143    1
    30   171   173   ar
    31   171   170   ar
    32   148   147    1
    33    64    63    2
    34   166   169    1
    35   166   167    1
    36   126   125    1
    37   173   174   ar
    38   161   163   ar
    39   169   170    1
    40   147   150    1
    41   162   163   ar
    42   150   151    1
    43   150   152    1
    44   170   172   ar
    45   163   164    1
    46    63    62    1
    47    63    68   am
    48    62    65    1
    49   143   145    1
    50   143   144    1
    51    72    69    1
    52    72    73    1
    53   125   123   am
    54    67    65    1
    55   167   175   am
    56   167   168    2
    57   174   172   ar
    58    54    53    2
    59    69    68    1
    60    69    70    1
    61    65    66    1
    62    73    74   ar
    63    73    75   ar
    64   175   176    1
    65    57    59   ar
    66    57    56   ar
    67    74    76   ar
    68    59    60   ar
    69    53    52    1
    70    55    56    1
    71    55    52    1
    72   123   124    2
    73   123   122    1
    74    56    58   ar
    75    75    77   ar
    76    52    51    1
    77    60    58   ar
    78    82    81    2
    79    70    79   am
    80    70    71    2
    81    76    78   ar
    82    79    80    1
    83   184   185    1
    84   177   176    1
    85   177   178    2
    86   176   179    1
    87   122   121    1
    88    77    78   ar
    89     8     6    1
    90   179   180    1
    91   190   189   ar
    92    81    80    1
    93    45    44    2
    94    88    85    1
    95    88    89    1
    96    51    44   am
    97    80    83    1
    98   180   181    1
    99   185   188    1
   100   185   186    1
   101   189   191   ar
   102   189   188    1
   103    84    85    1
   104    99    97    1
   105    91    89   ar
   106     6     5    1
   107     5     2    1
   108     5     7    1
   109    44    43    1
   110     1     2    1
   111    85    86    1
   112    89    90   ar
   113     2     3    1
   114   186   187    2
   115   181   182    1
   116    97    96    1
   117    41    39    1
   118    43    46    1
   119    43    42    1
   120     3     4    2
   121     3     9   am
   122    47    46    1
   123    47    48    1
   124    86    87    2
   125    38    37    2
   126   182   183    1
   127   116   115    1
   128    98    96    1
   129   120   119    2
   130    96    93    1
   131    39    40    1
   132    39    36    1
   133     9    10    1
   134   115   114    1
   135    48    50   ar
   136    48    49   ar
   137    37    36    1
   138   119   118    1
   139   118   117    1
   140    93    92    1
   141    93    94    1
   142    36    35    1
   143   201   200   ar
   144   201   199   ar
   145   200   198   ar
   146   107   105    1
   147    10    11    1
   148    10    13    1
   149   114   113    1
   150    11    12    2
   151    16    18   ar
   152    16    14   ar
   153    18    17   ar
   154    22    21    2
   155    94    95    2
   156   199   197   ar
   157    14    13    1
   158    14    15   ar
   159    17    15   ar
   160   198   197   ar
   161   106   104    1
   162   113   112    1
   163    33    30    1
   164    33    34    1
   165   105   104    1
   166   104   101    1
   167    30    29    1
   168    30    31    1
   169    21    29   am
   170    21    20    1
   171   197   196    1
   172    25    27   ar
   173    25    24   ar
   174    20    23    1
   175    20    19    1
   176    31    32    2
   177   112   109    1
   178    23    24    1
   179   192   193    1
   180   101   102    1
   181   101   100    1
   182    27    28   ar
   183   108   102   am
   184   108   109    1
   185    24    26   ar
   186   196   193    1
   187   193   194    1
   188   102   103    2
   189   109   110    1
   190    28    26   ar
   191   194   195    2
   192   110   111    2
