@<TRIPOS>MOLECULE
tmp/2jt5A00.pdb
 170 171 0 0 0
SMALL
GASTEIGER

@<TRIPOS>ATOM
      1  N          9.2960    5.3900   12.8310 N.3    75  ASN75      -0.1225
      2  CA         9.6780    4.4140   11.8070 C.3    75  ASN75       0.1785
      3  C          8.4590    3.6290   11.2830 C.2    75  ASN75       0.2597
      4  O          8.5210    3.0000   10.2280 O.2    75  ASN75      -0.2718
      5  CB        10.7520    3.4600   12.3440 C.3    75  ASN75       0.1169
      6  CG        10.2310    2.5140   13.4060 C.2    75  ASN75       0.2627
      7  OD1        9.5050    2.9080   14.3050 O.2    75  ASN75      -0.2716
      8  ND2       10.6160    1.2570   13.3200 N.am   75  ASN75      -0.0877
      9  N          7.3560    3.6580   12.0270 N.am   76  VAL76      -0.1966
     10  CA         6.1330    2.9740   11.6030 C.3    76  VAL76       0.1727
     11  C          5.2280    3.9580   10.8540 C.2    76  VAL76       0.2616
     12  O          5.0570    5.0900   11.2920 O.2    76  VAL76      -0.2715
     13  CB         5.3650    2.3730   12.7980 C.3    76  VAL76       0.0290
     14  CG1        4.2200    1.4950   12.3130 C.3    76  VAL76       0.0023
     15  CG2        6.3080    1.5810   13.6900 C.3    76  VAL76       0.0023
     16  N          4.6660    3.5530    9.7130 N.am   77  LEU77      -0.1963
     17  CA         3.8130    4.4710    8.9340 C.3    77  LEU77       0.1728
     18  C          2.4960    3.8560    8.4170 C.2    77  LEU77       0.2616
     19  O          1.5970    4.5990    8.0260 O.2    77  LEU77      -0.2715
     20  CB         4.5950    5.0040    7.7320 C.3    77  LEU77       0.0311
     21  CG         6.1150    5.0460    7.9090 C.3    77  LEU77       0.0022
     22  CD1        6.8140    4.8850    6.5720 C.3    77  LEU77       0.0001
     23  CD2        6.5460    6.3430    8.5660 C.3    77  LEU77       0.0001
     24  N          2.3680    2.5280    8.3980 N.am   78  ALA78      -0.1963
     25  CA         1.1380    1.9010    7.8780 C.3    78  ALA78       0.1728
     26  C          1.0700    0.3910    8.1370 C.2    78  ALA78       0.2616
     27  O          2.0920   -0.2730    8.3150 O.2    78  ALA78      -0.2715
     28  CB         1.0270    2.1470    6.3770 C.3    78  ALA78       0.0334
     29  N         -0.1480   -0.1490    8.1320 N.am   79  HIS79      -0.1959
     30  CA        -0.3550   -1.5840    8.3300 C.3    79  HIS79       0.1787
     31  C         -1.5530   -2.0710    7.4950 C.2    79  HIS79       0.2620
     32  O         -2.5340   -1.3430    7.3160 O.2    79  HIS79      -0.2715
     33  CB        -0.5230   -1.9100    9.8330 C.3    79  HIS79       0.0785
     34  CG        -1.8980   -1.7240   10.4170 C.ar   79  HIS79       0.0821
     35  ND1       -2.6310   -2.7500   10.9820 N.ar   79  HIS79      -0.2267
     36  CD2       -2.6580   -0.6070   10.5540 C.ar   79  HIS79       0.1154
     37  CE1       -3.7800   -2.2410   11.4350 C.ar   79  HIS79       0.1986
     38  NE2       -3.8460   -0.9490   11.2100 N.ar   79  HIS79      -0.2212
     39  N         -1.4690   -3.2980    6.9880 N.am   80  ALA80      -0.1977
     40  CA        -2.5310   -3.8470    6.1380 C.3    80  ALA80       0.1597
     41  C         -2.8150   -5.3300    6.4130 C.2    80  ALA80       0.2287
     42  O         -2.0400   -6.0200    7.0780 O.2    80  ALA80      -0.2864
     43  CB        -2.1550   -3.6630    4.6760 C.3    80  ALA80       0.0319
     44  N          5.3800    4.8960   -2.2990 N.3   110  LEU110     -0.1231
     45  CA         6.1220    3.6790   -1.9580 C.3   110  LEU110      0.1693
     46  C          5.3890    2.8950   -0.8640 C.2   110  LEU110      0.2591
     47  O          5.2690    1.6720   -0.9340 O.2   110  LEU110     -0.2718
     48  CB         7.5450    4.0080   -1.4890 C.3   110  LEU110      0.0284
     49  CG         8.4040    4.8170   -2.4660 C.3   110  LEU110      0.0019
     50  CD1        9.8710    4.7330   -2.0760 C.3   110  LEU110      0.0001
     51  CD2        8.2070    4.3400   -3.8970 C.3   110  LEU110      0.0001
     52  N          4.8970    3.6110    0.1470 N.am  111  VAL111     -0.1980
     53  CA         4.1580    2.9850    1.2410 C.3   111  VAL111      0.1595
     54  C          2.8850    2.3070    0.7180 C.2   111  VAL111      0.2287
     55  O          2.6060    1.1630    1.0610 O.2   111  VAL111     -0.2864
     56  CB         3.7970    4.0060    2.3440 C.3   111  VAL111      0.0276
     57  CG1        2.7100    3.4660    3.2640 C.3   111  VAL111      0.0022
     58  CG2        5.0340    4.3700    3.1490 C.3   111  VAL111      0.0022
     59  N          3.7440   -0.8180   -1.1360 N.3   114  HIS114     -0.1226
     60  CA         4.1090   -1.8170   -0.1420 C.3   114  HIS114      0.1752
     61  C          2.8550   -2.3480    0.5860 C.2   114  HIS114      0.2595
     62  O          2.7460   -3.5420    0.8740 O.2   114  HIS114     -0.2718
     63  CB         5.0940   -1.1950    0.8550 C.3   114  HIS114      0.0759
     64  CG         5.5280   -2.1330    1.9290 C.ar  114  HIS114      0.0818
     65  ND1        6.7090   -2.8390    1.9090 N.ar  114  HIS114     -0.2268
     66  CD2        4.9040   -2.4810    3.0770 C.ar  114  HIS114      0.1154
     67  CE1        6.7600   -3.5730    3.0240 C.ar  114  HIS114      0.1986
     68  NE2        5.6800   -3.3960    3.7570 N.ar  114  HIS114     -0.2212
     69  N          1.9190   -1.4530    0.8940 N.am  115  GLU115     -0.1979
     70  CA         0.6770   -1.8410    1.5680 C.3   115  GLU115      0.1602
     71  C         -0.2370   -2.6370    0.6300 C.2   115  GLU115      0.2287
     72  O         -0.8680   -3.6080    1.0470 O.2   115  GLU115     -0.2864
     73  CB        -0.0650   -0.6130    2.1030 C.3   115  GLU115      0.0415
     74  CG         0.6070    0.0400    3.3010 C.3   115  GLU115      0.1163
     75  CD         1.1090   -0.9650    4.3180 C.2   115  GLU115      0.3649
     76  OE1        0.2750   -1.5590    5.0270 O.co2 115  GLU115     -0.2457
     77  OE2        2.3370   -1.1570    4.4190 O.co2 115  GLU115     -0.2457
     78  N          0.9200   -6.0900    0.3180 N.3   118  HIS118     -0.1241
     79  CA         0.5040   -6.8220    1.5130 C.3   118  HIS118      0.1621
     80  C         -0.9400   -7.3040    1.3550 C.2   118  HIS118      0.2264
     81  O         -1.2150   -8.4970    1.4140 O.2   118  HIS118     -0.2867
     82  CB         0.5690   -5.9190    2.7390 C.3   118  HIS118      0.0745
     83  CG         1.8750   -5.9150    3.4630 C.ar  118  HIS118      0.0817
     84  ND1        2.5960   -7.0490    3.7470 N.ar  118  HIS118     -0.2268
     85  CD2        2.5810   -4.8800    3.9860 C.ar  118  HIS118      0.1154
     86  CE1        3.6920   -6.6850    4.4200 C.ar  118  HIS118      0.1986
     87  NE2        3.7320   -5.3780    4.5960 N.ar  118  HIS118     -0.2212
     88  N          6.5730  -10.0770    4.0410 N.3   124  HIS124     -0.1241
     89  CA         7.8250   -9.3400    3.8730 C.3   124  HIS124      0.1621
     90  C          8.8540  -10.1300    3.0660 C.2   124  HIS124      0.2264
     91  O          8.8180  -11.3590    3.0170 O.2   124  HIS124     -0.2867
     92  CB         8.4110   -8.9500    5.2300 C.3   124  HIS124      0.0745
     93  CG         7.7730   -7.7310    5.8150 C.ar  124  HIS124      0.0817
     94  ND1        7.6990   -7.4760    7.1660 N.ar  124  HIS124     -0.2268
     95  CD2        7.1960   -6.6680    5.2020 C.ar  124  HIS124      0.1154
     96  CE1        7.0910   -6.2980    7.3310 C.ar  124  HIS124      0.1986
     97  NE2        6.7680   -5.7640    6.1690 N.ar  124  HIS124     -0.2212
     98  N         13.4730   -5.0890   -3.3230 N.3   130  ALA130     -0.1231
     99  CA        12.1110   -5.6030   -3.2400 C.3   130  ALA130      0.1694
    100  C         11.1370   -4.5930   -2.6400 C.2   130  ALA130      0.2591
    101  O         11.4040   -3.9860   -1.6030 O.2   130  ALA130     -0.2718
    102  CB        12.0720   -6.9050   -2.4490 C.3   130  ALA130      0.0304
    103  N          9.9940   -4.4330   -3.2940 N.am  131  LEU131     -0.1980
    104  CA         8.9610   -3.5100   -2.8280 C.3   131  LEU131      0.1596
    105  C          8.3790   -3.9620   -1.4760 C.2   131  LEU131      0.2287
    106  O          7.8180   -3.1670   -0.7230 O.2   131  LEU131     -0.2864
    107  CB         7.8470   -3.4080   -3.8730 C.3   131  LEU131      0.0297
    108  CG         6.6830   -2.4910   -3.4970 C.3   131  LEU131      0.0022
    109  CD1        7.1670   -1.0660   -3.2820 C.3   131  LEU131      0.0001
    110  CD2        5.6090   -2.5230   -4.5680 C.3   131  LEU131      0.0001
    111  N         10.1530   -5.0810    1.0660 N.3   133  TYR133     -0.1228
    112  CA        11.2220   -5.0570    2.0700 C.3   133  TYR133      0.1721
    113  C         10.7040   -4.4660    3.4000 C.2   133  TYR133      0.2437
    114  O          9.9920   -3.4620    3.4040 O.2   133  TYR133     -0.2733
    115  CB        12.4060   -4.2410    1.5410 C.3   133  TYR133      0.0547
    116  CG        13.6670   -4.3700    2.3690 C.ar  133  TYR133     -0.0200
    117  CD1       14.3310   -5.5870    2.4850 C.ar  133  TYR133     -0.0009
    118  CD2       14.2010   -3.2720    3.0280 C.ar  133  TYR133     -0.0009
    119  CE1       15.4890   -5.7000    3.2280 C.ar  133  TYR133      0.0417
    120  CE2       15.3580   -3.3810    3.7730 C.ar  133  TYR133      0.0417
    121  CZ        15.9990   -4.5950    3.8660 C.ar  133  TYR133      0.1957
    122  OH        17.1570   -4.7020    4.5930 O.3   133  TYR133     -0.2866
    123  N         11.0550   -5.0790    4.5480 N.am  134  PRO134     -0.2718
    124  CA        10.5910   -4.6220    5.8820 C.3   134  PRO134      0.1535
    125  C         11.1610   -3.2720    6.3590 C.2   134  PRO134      0.2598
    126  O         10.9720   -2.8950    7.5150 O.2   134  PRO134     -0.2715
    127  CB        11.0710   -5.7380    6.8150 C.3   134  PRO134      0.0310
    128  CG        12.2330   -6.3490    6.1130 C.3   134  PRO134      0.0237
    129  CD        11.9080   -6.2780    4.6480 C.3   134  PRO134      0.0939
    130  N         11.8320   -2.5370    5.4820 N.am  135  LEU135     -0.1964
    131  CA        12.4140   -1.2500    5.8660 C.3   135  LEU135      0.1728
    132  C         12.2180   -0.1790    4.7910 C.2   135  LEU135      0.2616
    133  O         12.5960   -0.3700    3.6330 O.2   135  LEU135     -0.2715
    134  CB        13.9120   -1.4100    6.1550 C.3   135  LEU135      0.0311
    135  CG        14.2530   -2.1550    7.4480 C.3   135  LEU135      0.0022
    136  CD1       15.7550   -2.3620    7.5630 C.3   135  LEU135      0.0001
    137  CD2       13.7250   -1.3830    8.6490 C.3   135  LEU135      0.0001
    138  N         11.6270    0.9490    5.1820 N.am  136  TYR136     -0.1960
    139  CA        11.4110    2.0650    4.2570 C.3   136  TYR136      0.1771
    140  C         12.7540    2.7070    3.8820 C.2   136  TYR136      0.2619
    141  O         13.3000    3.5320    4.6130 O.2   136  TYR136     -0.2715
    142  CB        10.4640    3.1040    4.8790 C.3   136  TYR136      0.0574
    143  CG        10.3510    4.4000    4.0950 C.ar  136  TYR136     -0.0198
    144  CD1        9.9850    4.4040    2.7530 C.ar  136  TYR136     -0.0009
    145  CD2       10.5970    5.6220    4.7090 C.ar  136  TYR136     -0.0009
    146  CE1        9.8700    5.5870    2.0470 C.ar  136  TYR136      0.0417
    147  CE2       10.4780    6.8080    4.0100 C.ar  136  TYR136      0.0417
    148  CZ        10.1110    6.7870    2.6830 C.ar  136  TYR136      0.1957
    149  OH         9.9830    7.9710    1.9930 O.3   136  TYR136     -0.2866
    150  N         13.2870    2.2980    2.7430 N.am  137  HIS137     -0.1973
    151  CA        14.5640    2.8070    2.2660 C.3   137  HIS137      0.1656
    152  C         14.4430    4.2060    1.6510 C.2   137  HIS137      0.2291
    153  O         13.6900    4.4110    0.7020 O.2   137  HIS137     -0.2864
    154  CB        15.1510    1.8400    1.2330 C.3   137  HIS137      0.0771
    155  CG        16.1910    0.9220    1.7890 C.ar  137  HIS137      0.0820
    156  ND1       17.4570    0.8160    1.2580 N.ar  137  HIS137     -0.2267
    157  CD2       16.1670    0.0930    2.8610 C.ar  137  HIS137      0.1154
    158  CE1       18.1700   -0.0270    1.9790 C.ar  137  HIS137      0.1986
    159  NE2       17.4140   -0.4760    2.9600 N.ar  137  HIS137     -0.2212
    160  N         13.1640    3.1470   -9.1670 N.3   145  PHE145     -0.1241
    161  CA        12.1450    2.4410   -8.3830 C.3   145  PHE145      0.1605
    162  C         11.4540    1.3670   -9.2310 C.2   145  PHE145      0.2264
    163  O         10.9150    1.6520  -10.3010 O.2   145  PHE145     -0.2867
    164  CB        11.1120    3.4220   -7.8210 C.3   145  PHE145      0.0534
    165  CG         9.9350    2.7480   -7.1650 C.ar  145  PHE145     -0.0203
    166  CD1       10.1080    1.9590   -6.0390 C.ar  145  PHE145     -0.0042
    167  CD2        8.6570    2.8930   -7.6860 C.ar  145  PHE145     -0.0042
    168  CE1        9.0300    1.3300   -5.4430 C.ar  145  PHE145     -0.0003
    169  CE2        7.5750    2.2610   -7.0980 C.ar  145  PHE145     -0.0003
    170  CZ         7.7630    1.4770   -5.9770 C.ar  145  PHE145     -0.0000
@<TRIPOS>BOND
     1   163   162    2
     2   162   161    1
     3   160   161    1
     4   161   164    1
     5   164   165    1
     6   167   165   ar
     7   167   169   ar
     8   165   166   ar
     9   169   170   ar
    10   166   168   ar
    11   170   168   ar
    12   110   108    1
    13    51    49    1
    14   107   108    1
    15   107   104    1
    16   108   109    1
    17    98    99    1
    18   103   104    1
    19   103   100   am
    20    99   100    1
    21    99   102    1
    22   104   105    1
    23   100   101    2
    24    49    50    1
    25    49    48    1
    26    44    45    1
    27    45    48    1
    28    45    46    1
    29   105   106    2
    30    59    60    1
    31    47    46    2
    32    46    52   am
    33    60    61    1
    34    60    63    1
    35    52    53    1
    36    78    79    1
    37    61    62    2
    38    61    69   am
    39    71    72    2
    40    71    70    1
    41   153   152    2
    42    54    55    2
    43    54    53    1
    44    63    64    1
    45    69    70    1
    46   111   112    1
    47   154   155    1
    48   154   151    1
    49    53    56    1
    50   156   155   ar
    51   156   158   ar
    52    80    81    2
    53    80    79    1
    54    79    82    1
    55   115   112    1
    56   115   116    1
    57    70    73    1
    58   152   151    1
    59   155   157   ar
    60    65    64   ar
    61    65    67   ar
    62    64    66   ar
    63   158   159   ar
    64   149   148    1
    65   146   148   ar
    66   146   144   ar
    67   112   113    1
    68    73    74    1
    69   151   150    1
    70    56    58    1
    71    56    57    1
    72   116   117   ar
    73   116   118   ar
    74   117   119   ar
    75   148   147   ar
    76    82    83    1
    77   150   140   am
    78   144   143   ar
    79   157   159   ar
    80    91    90    2
    81    67    68   ar
    82   118   120   ar
    83    90    89    1
    84    66    68   ar
    85   119   121   ar
    86    74    75    1
    87   113   114    2
    88   113   123   am
    89    83    84   ar
    90    83    85   ar
    91   133   132    2
    92    84    86   ar
    93   120   121   ar
    94   121   122    1
    95    89    88    1
    96    89    92    1
    97   140   139    1
    98   140   141    2
    99    85    87   ar
   100   147   145   ar
   101   143   145   ar
   102   143   142    1
   103   139   142    1
   104   139   138    1
   105    75    77   ar
   106    75    76   ar
   107    86    87   ar
   108   123   129    1
   109   123   124    1
   110   129   128    1
   111    43    40    1
   112   132   138   am
   113   132   131    1
   114    95    93   ar
   115    95    97   ar
   116    92    93    1
   117   130   131    1
   118   130   125   am
   119    93    94   ar
   120   131   134    1
   121   124   125    1
   122   124   127    1
   123   128   127    1
   124    40    41    1
   125    40    39    1
   126   134   135    1
   127    97    96   ar
   128   125   126    2
   129    28    25    1
   130    41    42    2
   131    22    21    1
   132    39    31   am
   133    94    96   ar
   134    32    31    2
   135   135   136    1
   136   135   137    1
   137    31    30    1
   138    20    21    1
   139    20    17    1
   140    25    26    1
   141    25    24    1
   142    21    23    1
   143    19    18    2
   144    29    26   am
   145    29    30    1
   146    26    27    2
   147    30    33    1
   148    24    18   am
   149    18    17    1
   150    17    16    1
   151    16    11   am
   152    33    34    1
   153     4     3    2
   154    34    36   ar
   155    34    35   ar
   156    36    38   ar
   157    11    12    2
   158    11    10    1
   159    35    37   ar
   160    38    37   ar
   161     3     2    1
   162     3     9   am
   163    10     9    1
   164    10    13    1
   165     2     5    1
   166     2     1    1
   167    14    13    1
   168     5     6    1
   169    13    15    1
   170     8     6   am
   171     6     7    2
