@<TRIPOS>MOLECULE
tmp/2jt6A00.pdb
 216 216 0 0 0
SMALL
GASTEIGER

@<TRIPOS>ATOM
      1  N          9.0930    5.6930   12.5450 N.3    75  ASN75      -0.1225
      2  CA         9.2480    4.6270   11.5360 C.3    75  ASN75       0.1785
      3  C          7.9230    3.9050   11.2110 C.2    75  ASN75       0.2597
      4  O          7.7270    3.4510   10.0800 O.2    75  ASN75      -0.2718
      5  CB        10.3350    3.6390   11.9870 C.3    75  ASN75       0.1169
      6  CG         9.8330    2.2220   12.2170 C.2    75  ASN75       0.2627
      7  OD1        9.3850    1.8840   13.3020 O.2    75  ASN75      -0.2716
      8  ND2        9.8970    1.3840   11.1970 N.am   75  ASN75      -0.0877
      9  N          7.0420    3.7560   12.1870 N.am   76  VAL76      -0.1966
     10  CA         5.7500    3.1240   11.9370 C.3    76  VAL76       0.1727
     11  C          4.9530    4.0050   10.9640 C.2    76  VAL76       0.2616
     12  O          4.4960    5.0820   11.3330 O.2    76  VAL76      -0.2715
     13  CB         4.9480    2.9420   13.2420 C.3    76  VAL76       0.0290
     14  CG1        4.0490    1.7240   13.1450 C.3    76  VAL76       0.0023
     15  CG2        5.8750    2.8320   14.4500 C.3    76  VAL76       0.0023
     16  N          4.8120    3.5670    9.7180 N.am   77  LEU77      -0.1963
     17  CA         4.1010    4.3720    8.7160 C.3    77  LEU77       0.1728
     18  C          2.6860    3.8770    8.3980 C.2    77  LEU77       0.2616
     19  O          1.7960    4.6860    8.1340 O.2    77  LEU77      -0.2715
     20  CB         4.9180    4.4130    7.4220 C.3    77  LEU77       0.0311
     21  CG         6.4050    4.7340    7.6050 C.3    77  LEU77       0.0022
     22  CD1        7.1320    4.6650    6.2700 C.3    77  LEU77       0.0001
     23  CD2        6.5930    6.1020    8.2400 C.3    77  LEU77       0.0001
     24  N          2.4790    2.5630    8.4030 N.am   78  ALA78      -0.1963
     25  CA         1.1610    2.0050    8.0690 C.3    78  ALA78       0.1728
     26  C          1.0710    0.4950    8.3080 C.2    78  ALA78       0.2616
     27  O          2.0810   -0.1810    8.5170 O.2    78  ALA78      -0.2715
     28  CB         0.8480    2.2920    6.6080 C.3    78  ALA78       0.0334
     29  N         -0.1490   -0.0330    8.2560 N.am   79  HIS79      -0.1959
     30  CA        -0.3740   -1.4660    8.4350 C.3    79  HIS79       0.1787
     31  C         -1.5450   -1.9440    7.5610 C.2    79  HIS79       0.2620
     32  O         -2.5110   -1.2060    7.3420 O.2    79  HIS79      -0.2715
     33  CB        -0.5800   -1.8080    9.9240 C.3    79  HIS79       0.0785
     34  CG        -1.9790   -1.6320   10.4480 C.ar   79  HIS79       0.0821
     35  ND1       -2.7650   -2.6790   10.8730 N.ar   79  HIS79      -0.2267
     36  CD2       -2.7170   -0.5080   10.6500 C.ar   79  HIS79       0.1154
     37  CE1       -3.9240   -2.1780   11.3090 C.ar   79  HIS79       0.1986
     38  NE2       -3.9500   -0.8710   11.1980 N.ar   79  HIS79      -0.2212
     39  N         -1.4610   -3.1760    7.0680 N.am   80  ALA80      -0.1977
     40  CA        -2.4980   -3.7140    6.1840 C.3    80  ALA80       0.1597
     41  C         -2.8070   -5.1960    6.4450 C.2    80  ALA80       0.2287
     42  O         -2.0330   -5.9090    7.0850 O.2    80  ALA80      -0.2864
     43  CB        -2.0690   -3.5270    4.7340 C.3    80  ALA80       0.0319
     44  N          5.4490    5.1090   -2.2110 N.3   110  LEU110     -0.1231
     45  CA         6.1950    3.8780   -1.9510 C.3   110  LEU110      0.1693
     46  C          5.4970    3.0400   -0.8710 C.2   110  LEU110      0.2591
     47  O          5.3580    1.8250   -1.0030 O.2   110  LEU110     -0.2718
     48  CB         7.6290    4.2010   -1.5150 C.3   110  LEU110      0.0284
     49  CG         8.5570    4.7040   -2.6240 C.3   110  LEU110      0.0019
     50  CD1        9.9530    4.9580   -2.0760 C.3   110  LEU110      0.0001
     51  CD2        8.6120    3.7080   -3.7730 C.3   110  LEU110      0.0001
     52  N          5.0560    3.7050    0.1970 N.am  111  VAL111     -0.1980
     53  CA         4.3580    3.0290    1.2900 C.3   111  VAL111      0.1595
     54  C          3.0560    2.3790    0.8000 C.2   111  VAL111      0.2287
     55  O          2.7700    1.2340    1.1340 O.2   111  VAL111     -0.2864
     56  CB         4.0510    3.9980    2.4550 C.3   111  VAL111      0.0276
     57  CG1        3.1460    3.3420    3.4890 C.3   111  VAL111      0.0022
     58  CG2        5.3410    4.4650    3.1060 C.3   111  VAL111      0.0022
     59  N          3.6880   -0.7030   -1.0980 N.3   114  HIS114     -0.1226
     60  CA         4.0830   -1.7380   -0.1510 C.3   114  HIS114      0.1752
     61  C          2.8510   -2.2830    0.5560 C.2   114  HIS114      0.2595
     62  O          2.7170   -3.4870    0.7710 O.2   114  HIS114     -0.2718
     63  CB         5.0890   -1.1590    0.8520 C.3   114  HIS114      0.0759
     64  CG         5.5390   -2.1350    1.8940 C.ar  114  HIS114      0.0818
     65  ND1        6.6810   -2.8940    1.7960 N.ar  114  HIS114     -0.2268
     66  CD2        4.9570   -2.4840    3.0670 C.ar  114  HIS114      0.1154
     67  CE1        6.7570   -3.6640    2.8880 C.ar  114  HIS114      0.1986
     68  NE2        5.7260   -3.4600    3.6820 N.ar  114  HIS114     -0.2212
     69  N          1.9170   -1.3940    0.8940 N.am  115  GLU115     -0.1979
     70  CA         0.6780   -1.8050    1.5690 C.3   115  GLU115      0.1602
     71  C         -0.2310   -2.5890    0.6140 C.2   115  GLU115      0.2287
     72  O         -0.8910   -3.5450    1.0190 O.2   115  GLU115     -0.2864
     73  CB        -0.0800   -0.5950    2.1330 C.3   115  GLU115      0.0415
     74  CG         0.6700    0.1640    3.2230 C.3   115  GLU115      0.1163
     75  CD         1.2910   -0.7420    4.2710 C.2   115  GLU115      0.3649
     76  OE1        0.5350   -1.3570    5.0520 O.co2 115  GLU115     -0.2457
     77  OE2        2.5350   -0.8300    4.3200 O.co2 115  GLU115     -0.2457
     78  N          0.9610   -6.0420    0.2840 N.3   118  HIS118     -0.1241
     79  CA         0.5500   -6.7880    1.4710 C.3   118  HIS118      0.1621
     80  C         -0.8830   -7.2980    1.3140 C.2   118  HIS118      0.2264
     81  O         -1.1310   -8.5000    1.3470 O.2   118  HIS118     -0.2867
     82  CB         0.6140   -5.8950    2.7130 C.3   118  HIS118      0.0745
     83  CG         1.9190   -5.9340    3.4320 C.ar  118  HIS118      0.0817
     84  ND1        2.5920   -7.0910    3.7390 N.ar  118  HIS118     -0.2268
     85  CD2        2.6740   -4.9190    3.9230 C.ar  118  HIS118      0.1154
     86  CE1        3.7060   -6.7560    4.4000 C.ar  118  HIS118      0.1986
     87  NE2        3.8050   -5.4480    4.5380 N.ar  118  HIS118     -0.2212
     88  N          6.6290  -10.0670    3.8790 N.3   124  HIS124     -0.1241
     89  CA         7.8750   -9.3150    3.7300 C.3   124  HIS124      0.1621
     90  C          8.9110  -10.0960    2.9250 C.2   124  HIS124      0.2264
     91  O          8.9040  -11.3260    2.9060 O.2   124  HIS124     -0.2867
     92  CB         8.4560   -8.9430    5.0970 C.3   124  HIS124      0.0745
     93  CG         7.6920   -7.8660    5.8010 C.ar  124  HIS124      0.0817
     94  ND1        7.6390   -7.7320    7.1710 N.ar  124  HIS124     -0.2268
     95  CD2        6.9370   -6.8580    5.3000 C.ar  124  HIS124      0.1154
     96  CE1        6.8740   -6.6740    7.4550 C.ar  124  HIS124      0.1986
     97  NE2        6.4210   -6.1070    6.3540 N.ar  124  HIS124     -0.2212
     98  N         16.9990   -5.7180   -1.0650 N.3   128  THR128     -0.1203
     99  CA        16.9420   -4.2680   -0.8550 C.3   128  THR128      0.1994
    100  C         16.1920   -3.5330   -1.9720 C.2   128  THR128      0.2618
    101  O         15.7790   -2.3900   -1.7940 O.2   128  THR128     -0.2717
    102  CB        18.3490   -3.6570   -0.7240 C.3   128  THR128      0.1784
    103  OG1       19.3200   -4.4940   -1.3680 O.3   128  THR128     -0.2211
    104  CG2       18.7210   -3.4720    0.7400 C.3   128  THR128      0.0376
    105  N         16.0470   -4.1750   -3.1260 N.am  129  GLU129     -0.1965
    106  CA        15.3200   -3.5740   -4.2510 C.3   129  GLU129      0.1733
    107  C         13.8430   -3.9850   -4.2310 C.2   129  GLU129      0.2616
    108  O         13.0290   -3.4380   -4.9700 O.2   129  GLU129     -0.2715
    109  CB        15.8970   -4.0230   -5.5930 C.3   129  GLU129      0.0429
    110  CG        17.4000   -4.2020   -5.6360 C.3   129  GLU129      0.1163
    111  CD        17.8110   -4.9310   -6.8990 C.2   129  GLU129      0.3649
    112  OE1       17.5810   -6.1580   -6.9730 O.co2 129  GLU129     -0.2457
    113  OE2       18.3090   -4.2740   -7.8390 O.co2 129  GLU129     -0.2457
    114  N         13.5100   -4.9540   -3.3860 N.am  130  ALA130     -0.1963
    115  CA        12.1440   -5.4600   -3.3040 C.3   130  ALA130      0.1728
    116  C         11.1750   -4.4450   -2.6950 C.2   130  ALA130      0.2616
    117  O         11.4580   -3.8230   -1.6710 O.2   130  ALA130     -0.2715
    118  CB        12.1120   -6.7610   -2.5140 C.3   130  ALA130      0.0334
    119  N         10.0170   -4.3020   -3.3290 N.am  131  LEU131     -0.1977
    120  CA         8.9860   -3.3700   -2.8720 C.3   131  LEU131      0.1596
    121  C          8.3790   -3.8070   -1.5250 C.2   131  LEU131      0.2287
    122  O          7.7540   -3.0160   -0.8200 O.2   131  LEU131     -0.2864
    123  CB         7.8860   -3.2780   -3.9320 C.3   131  LEU131      0.0297
    124  CG         6.8770   -2.1450   -3.7400 C.3   131  LEU131      0.0022
    125  CD1        7.5840   -0.8020   -3.6500 C.3   131  LEU131      0.0001
    126  CD2        5.8740   -2.1360   -4.8810 C.3   131  LEU131      0.0001
    127  N         10.2130   -5.0210    1.0580 N.3   133  TYR133     -0.1228
    128  CA        11.2780   -5.0450    2.0630 C.3   133  TYR133      0.1721
    129  C         10.7450   -4.5680    3.4300 C.2   133  TYR133      0.2437
    130  O         10.0910   -3.5310    3.5200 O.2   133  TYR133     -0.2733
    131  CB        12.4400   -4.1600    1.5980 C.3   133  TYR133      0.0547
    132  CG        13.7280   -4.3660    2.3650 C.ar  133  TYR133     -0.0200
    133  CD1       14.3130   -5.6230    2.4650 C.ar  133  TYR133     -0.0009
    134  CD2       14.3670   -3.2970    2.9760 C.ar  133  TYR133     -0.0009
    135  CE1       15.4930   -5.8070    3.1590 C.ar  133  TYR133      0.0417
    136  CE2       15.5440   -3.4770    3.6750 C.ar  133  TYR133      0.0417
    137  CZ        16.1020   -4.7320    3.7630 C.ar  133  TYR133      0.1957
    138  OH        17.2770   -4.9100    4.4520 O.3   133  TYR133     -0.2866
    139  N         11.0110   -5.3230    4.5120 N.am  134  PRO134     -0.2718
    140  CA        10.5270   -4.9830    5.8690 C.3   134  PRO134      0.1535
    141  C         11.2560   -3.8150    6.5580 C.2   134  PRO134      0.2598
    142  O         11.1680   -3.6620    7.7760 O.2   134  PRO134     -0.2715
    143  CB        10.7710   -6.2740    6.6480 C.3   134  PRO134      0.0310
    144  CG        11.9220   -6.9210    5.9620 C.3   134  PRO134      0.0237
    145  CD        11.7760   -6.5840    4.5010 C.3   134  PRO134      0.0939
    146  N         11.9480   -2.9810    5.7930 N.am  135  LEU135     -0.1964
    147  CA        12.6680   -1.8430    6.3660 C.3   135  LEU135      0.1728
    148  C         12.5860   -0.6130    5.4570 C.2   135  LEU135      0.2616
    149  O         12.7400   -0.7160    4.2400 O.2   135  LEU135     -0.2715
    150  CB        14.1320   -2.2080    6.6190 C.3   135  LEU135      0.0311
    151  CG        14.3760   -3.1420    7.8070 C.3   135  LEU135      0.0022
    152  CD1       15.8140   -3.6340    7.8100 C.3   135  LEU135      0.0001
    153  CD2       14.0490   -2.4270    9.1120 C.3   135  LEU135      0.0001
    154  N         12.3520    0.5510    6.0580 N.am  136  TYR136     -0.1960
    155  CA        12.2490    1.8060    5.3090 C.3   136  TYR136      0.1771
    156  C         13.4500    2.0110    4.3720 C.2   136  TYR136      0.2619
    157  O         14.6060    1.9340    4.7870 O.2   136  TYR136     -0.2715
    158  CB        12.1290    2.9950    6.2760 C.3   136  TYR136      0.0574
    159  CG        11.3700    4.1850    5.7060 C.ar  136  TYR136     -0.0198
    160  CD1       10.9030    4.1680    4.3980 C.ar  136  TYR136     -0.0009
    161  CD2       11.1280    5.3250    6.4690 C.ar  136  TYR136     -0.0009
    162  CE1       10.2180    5.2420    3.8640 C.ar  136  TYR136      0.0417
    163  CE2       10.4380    6.4070    5.9410 C.ar  136  TYR136      0.0417
    164  CZ         9.9880    6.3580    4.6370 C.ar  136  TYR136      0.1957
    165  OH         9.3060    7.4260    4.0980 O.3   136  TYR136     -0.2866
    166  N         13.1670    2.2440    3.0990 N.am  137  HIS137     -0.1973
    167  CA        14.2150    2.4480    2.1030 C.3   137  HIS137      0.1656
    168  C         13.8510    3.5970    1.1580 C.2   137  HIS137      0.2291
    169  O         13.7790    3.4320   -0.0580 O.2   137  HIS137     -0.2864
    170  CB        14.4730    1.1530    1.3260 C.3   137  HIS137      0.0771
    171  CG        15.7200    0.4490    1.7600 C.ar  137  HIS137      0.0820
    172  ND1       16.0150    0.1850    3.0810 N.ar  137  HIS137     -0.2267
    173  CD2       16.7580   -0.0410    1.0410 C.ar  137  HIS137      0.1154
    174  CE1       17.1740   -0.4360    3.1570 C.ar  137  HIS137      0.1986
    175  NE2       17.6490   -0.5800    1.9380 N.ar  137  HIS137     -0.2212
    176  N         14.3730    6.0230   -1.1720 N.3   139  LEU139     -0.1245
    177  CA        15.4090    6.3950   -2.1370 C.3   139  LEU139      0.1561
    178  C         14.9570    7.5440   -3.0450 C.2   139  LEU139      0.2260
    179  O         13.9230    7.4620   -3.7100 O.2   139  LEU139     -0.2867
    180  CB        15.7890    5.1810   -2.9890 C.3   139  LEU139      0.0270
    181  CG        16.8820    5.4240   -4.0380 C.3   139  LEU139      0.0019
    182  CD1       18.1990    5.8080   -3.3780 C.3   139  LEU139      0.0001
    183  CD2       17.0670    4.1830   -4.8960 C.3   139  LEU139      0.0001
    184  N         15.2300    4.3200  -10.3490 N.3   144  ARG144     -0.1231
    185  CA        15.6670    2.9590  -10.0520 C.3   144  ARG144      0.1694
    186  C         14.5250    2.1310   -9.4380 C.2   144  ARG144      0.2592
    187  O         14.7060    0.9610   -9.1030 O.2   144  ARG144     -0.2718
    188  CB        16.8600    2.9900   -9.0930 C.3   144  ARG144      0.0321
    189  CG        17.7990    1.8060   -9.2520 C.3   144  ARG144      0.0489
    190  CD        19.1600    2.0860   -8.6350 C.3   144  ARG144      0.2205
    191  NE        19.6490    3.4110   -8.9920 N.pl3 144  ARG144     -0.0865
    192  CZ        20.8260    3.6640   -9.4720 C.cat 144  ARG144      0.5346
    193  NH1       21.6820    2.7100   -9.6760 N.pl3 144  ARG144      0.1354
    194  NH2       21.1440    4.8860   -9.7350 N.pl3 144  ARG144      0.1354
    195  N         13.3520    2.7520   -9.2880 N.am  145  PHE145     -0.1962
    196  CA        12.1770    2.0680   -8.7290 C.3   145  PHE145      0.1771
    197  C         11.7540    0.8950   -9.6250 C.2   145  PHE145      0.2619
    198  O         11.2740    1.0920  -10.7410 O.2   145  PHE145     -0.2715
    199  CB        11.0200    3.0650   -8.5550 C.3   145  PHE145      0.0574
    200  CG         9.7090    2.4290   -8.1740 C.ar  145  PHE145     -0.0200
    201  CD1        9.5910    1.6870   -7.0080 C.ar  145  PHE145     -0.0042
    202  CD2        8.5980    2.5660   -8.9910 C.ar  145  PHE145     -0.0042
    203  CE1        8.3900    1.0940   -6.6680 C.ar  145  PHE145     -0.0003
    204  CE2        7.3940    1.9760   -8.6540 C.ar  145  PHE145     -0.0003
    205  CZ         7.2900    1.2410   -7.4900 C.ar  145  PHE145     -0.0000
    206  N         11.9240   -0.3260   -9.1300 N.am  146  ARG146     -0.1977
    207  CA        11.5600   -1.5090   -9.9090 C.3   146  ARG146      0.1597
    208  C         11.2250   -2.7160   -9.0290 C.2   146  ARG146      0.2287
    209  O         11.3510   -2.6770   -7.8070 O.2   146  ARG146     -0.2864
    210  CB        12.7410   -1.8880  -10.8060 C.3   146  ARG146      0.0334
    211  CG        13.9170   -2.4570  -10.0150 C.3   146  ARG146      0.0492
    212  CD        15.0360   -2.9480  -10.9190 C.3   146  ARG146      0.2205
    213  NE        15.9960   -3.7810  -10.1950 N.pl3 146  ARG146     -0.0865
    214  CZ        16.2830   -5.0120  -10.5080 C.cat 146  ARG146      0.5346
    215  NH1       15.6840   -5.5900  -11.5060 N.pl3 146  ARG146      0.1354
    216  NH2       17.1620   -5.6670   -9.8250 N.pl3 146  ARG146      0.1354
@<TRIPOS>BOND
     1   215   214    1
     2   212   213    1
     3   212   211    1
     4   210   211    1
     5   210   207    1
     6   198   197    2
     7   214   213    2
     8   214   216    1
     9   184   185    1
    10   185   186    1
    11   185   188    1
    12   207   206    1
    13   207   208    1
    14   194   192    1
    15   193   192    1
    16   197   206   am
    17   197   196    1
    18   192   191    2
    19   186   195   am
    20   186   187    2
    21   195   196    1
    22   189   188    1
    23   189   190    1
    24   208   209    2
    25   191   190    1
    26   202   204   ar
    27   202   200   ar
    28   196   199    1
    29   204   205   ar
    30   199   200    1
    31   200   201   ar
    32   113   111   ar
    33   205   203   ar
    34   201   203   ar
    35   112   111   ar
    36   111   110    1
    37   110   109    1
    38   109   106    1
    39   108   107    2
    40   183   181    1
    41   126   124    1
    42   106   107    1
    43   106   105    1
    44   107   114   am
    45   181   182    1
    46   181   180    1
    47   123   124    1
    48   123   120    1
    49    51    49    1
    50   124   125    1
    51   179   178    2
    52   114   115    1
    53   119   120    1
    54   119   116   am
    55   115   116    1
    56   115   118    1
    57   105   100   am
    58   178   177    1
    59   180   177    1
    60   120   121    1
    61   116   117    2
    62    49    50    1
    63    49    48    1
    64    44    45    1
    65   177   176    1
    66   100   101    2
    67   100    99    1
    68    45    48    1
    69    45    46    1
    70   121   122    2
    71   103   102    1
    72    59    60    1
    73    98    99    1
    74    47    46    2
    75    46    52   am
    76    99   102    1
    77   102   104    1
    78    60    61    1
    79    60    63    1
    80   169   168    2
    81    52    53    1
    82    78    79    1
    83    61    62    2
    84    61    69   am
    85    71    72    2
    86    71    70    1
    87    54    55    2
    88    54    53    1
    89    63    64    1
    90    69    70    1
    91   173   171   ar
    92   173   175   ar
    93   127   128    1
    94   168   167    1
    95    53    56    1
    96    80    81    2
    97    80    79    1
    98   170   171    1
    99   170   167    1
   100    79    82    1
   101    70    73    1
   102   131   128    1
   103   131   132    1
   104   171   172   ar
   105    65    64   ar
   106    65    67   ar
   107    64    66   ar
   108   175   174   ar
   109   128   129    1
   110   167   166    1
   111    73    74    1
   112   132   133   ar
   113   132   134   ar
   114    56    58    1
   115    56    57    1
   116   133   135   ar
   117    82    83    1
   118    67    68   ar
   119    91    90    2
   120    90    89    1
   121   134   136   ar
   122    66    68   ar
   123   172   174   ar
   124   166   156   am
   125   135   137   ar
   126    74    75    1
   127   129   130    2
   128   129   139   am
   129    83    84   ar
   130    83    85   ar
   131   136   137   ar
   132    89    88    1
   133    89    92    1
   134    84    86   ar
   135   137   138    1
   136   162   160   ar
   137   162   164   ar
   138    85    87   ar
   139   165   164    1
   140   149   148    2
   141    75    77   ar
   142    75    76   ar
   143   156   157    2
   144   156   155    1
   145   160   159   ar
   146    86    87   ar
   147   145   139    1
   148   145   144    1
   149   139   140    1
   150   164   163   ar
   151    43    40    1
   152    92    93    1
   153    95    93   ar
   154    95    97   ar
   155   155   154    1
   156   155   158    1
   157   148   154   am
   158   148   147    1
   159   159   158    1
   160   159   161   ar
   161   146   147    1
   162   146   141   am
   163    93    94   ar
   164   140   141    1
   165   140   143    1
   166   163   161   ar
   167   144   143    1
   168    40    41    1
   169    40    39    1
   170    22    21    1
   171    97    96   ar
   172   147   150    1
   173    41    42    2
   174   141   142    2
   175    28    25    1
   176   150   151    1
   177    39    31   am
   178    94    96   ar
   179    32    31    2
   180    20    21    1
   181    20    17    1
   182    31    30    1
   183    21    23    1
   184   151   152    1
   185   151   153    1
   186    25    26    1
   187    25    24    1
   188    19    18    2
   189    29    26   am
   190    29    30    1
   191    26    27    2
   192    18    24   am
   193    18    17    1
   194    30    33    1
   195    17    16    1
   196    16    11   am
   197    33    34    1
   198     4     3    2
   199    34    36   ar
   200    34    35   ar
   201    36    38   ar
   202    35    37   ar
   203    11    12    2
   204    11    10    1
   205     8     6   am
   206    38    37   ar
   207     3     2    1
   208     3     9   am
   209     2     5    1
   210     2     1    1
   211    10     9    1
   212    10    13    1
   213     5     6    1
   214     6     7    2
   215    14    13    1
   216    13    15    1
