@<TRIPOS>MOLECULE
tmp/2ju4A07.pdb
 74 70 0 0 0
SMALL
GASTEIGER

@<TRIPOS>ATOM
      1  N         72.4920   -5.0130   -8.5090 N.3    69  PRO69      -0.2116
      2  CA        72.6160   -6.4120   -8.0110 C.3    69  PRO69       0.1372
      3  C         71.3830   -6.8580   -7.2170 C.2    69  PRO69       0.2244
      4  O         71.1180   -8.0350   -7.0730 O.2    69  PRO69      -0.2868
      5  CB        73.8470   -6.3560   -7.1060 C.3    69  PRO69       0.0268
      6  CG        74.6980   -5.2690   -7.6790 C.3    69  PRO69       0.0207
      7  CD        73.7540   -4.2700   -8.3580 C.3    69  PRO69       0.0892
      8  N         69.8380  -10.7330   -8.1470 N.3    73  CYS73      -0.1221
      9  CA        70.6940  -11.1770   -7.0110 C.3    73  CYS73       0.1808
     10  C         71.0830  -12.6440   -7.2080 C.2    73  CYS73       0.2601
     11  O         70.4820  -13.5370   -6.6440 O.2    73  CYS73      -0.2717
     12  CB        69.9200  -11.0260   -5.7000 C.3    73  CYS73       0.0970
     13  SG        71.0290  -11.3440   -4.3050 S.3    73  CYS73      -0.0800
     14  N         72.0850  -12.9000   -8.0050 N.am   74  ASN74      -0.1974
     15  CA        72.5130  -14.3090   -8.2370 C.3    74  ASN74       0.1688
     16  C         73.8930  -14.3190   -8.8960 C.2    74  ASN74       0.2292
     17  O         74.7930  -15.0120   -8.4640 O.2    74  ASN74      -0.2864
     18  CB        71.5040  -15.0040   -9.1550 C.3    74  ASN74       0.1181
     19  CG        71.9130  -16.4650   -9.3510 C.2    74  ASN74       0.2629
     20  OD1       72.4500  -16.8250  -10.3800 O.2    74  ASN74      -0.2716
     21  ND2       71.6810  -17.3280   -8.4000 N.am   74  ASN74      -0.0877
     22  N         76.7300  -11.8180   -9.5300 N.3    76  CYS76      -0.1235
     23  CA        77.7700  -11.3260   -8.5820 C.3    76  CYS76       0.1677
     24  C         79.1120  -11.9910   -8.8990 C.2    76  CYS76       0.2270
     25  O         79.2240  -13.2000   -8.9400 O.2    76  CYS76      -0.2867
     26  CB        77.3590  -11.6630   -7.1460 C.3    76  CYS76       0.0956
     27  SG        78.6230  -11.0590   -5.9990 S.3    76  CYS76      -0.0801
     28  N         82.5090  -11.8440   -7.2420 N.3    78  LEU78      -0.1231
     29  CA        83.0430  -12.5180   -6.0190 C.3    78  LEU78       0.1693
     30  C         82.1250  -12.2180   -4.8310 C.2    78  LEU78       0.2592
     31  O         81.1140  -11.5570   -4.9650 O.2    78  LEU78      -0.2718
     32  CB        84.4550  -11.9870   -5.7250 C.3    78  LEU78       0.0284
     33  CG        85.4960  -12.9630   -6.2750 C.3    78  LEU78       0.0019
     34  CD1       86.8120  -12.2220   -6.5210 C.3    78  LEU78       0.0001
     35  CD2       85.7260  -14.0860   -5.2610 C.3    78  LEU78       0.0001
     36  N         82.4730  -12.6980   -3.6670 N.am   79  HIS79      -0.1962
     37  CA        81.6250  -12.4410   -2.4690 C.3    79  HIS79       0.1787
     38  C         80.2030  -12.9390   -2.7310 C.2    79  HIS79       0.2620
     39  O         79.2520  -12.1850   -2.6760 O.2    79  HIS79      -0.2715
     40  CB        81.5940  -10.9380   -2.1810 C.3    79  HIS79       0.0785
     41  CG        82.9850  -10.3760   -2.2940 C.ar   79  HIS79       0.0821
     42  ND1       84.1150  -11.1640   -2.1380 N.ar   79  HIS79      -0.2267
     43  CD2       83.4440   -9.1060   -2.5480 C.ar   79  HIS79       0.1154
     44  CE1       85.1890  -10.3710   -2.2970 C.ar   79  HIS79       0.1986
     45  NE2       84.8350   -9.1090   -2.5490 N.ar   79  HIS79      -0.2212
     46  N         80.0480  -14.2050   -3.0160 N.am   80  GLU80      -0.1977
     47  CA        78.6850  -14.7500   -3.2810 C.3    80  GLU80       0.1602
     48  C         78.1070  -15.3330   -1.9870 C.2    80  GLU80       0.2287
     49  O         76.9170  -15.5440   -1.8690 O.2    80  GLU80      -0.2864
     50  CB        78.7680  -15.8460   -4.3530 C.3    80  GLU80       0.0415
     51  CG        80.1520  -16.4970   -4.3140 C.3    80  GLU80       0.1163
     52  CD        80.1240  -17.8040   -5.1090 C.2    80  GLU80       0.3649
     53  OE1       79.3750  -18.6900   -4.7290 O.co2  80  GLU80      -0.2457
     54  OE2       80.8520  -17.8980   -6.0830 O.co2  80  GLU80      -0.2457
     55  N         77.9450  -13.8190    0.7070 N.3    82  ALA82      -0.1231
     56  CA        77.2730  -12.6970    1.4230 C.3    82  ALA82       0.1694
     57  C         75.7740  -12.7090    1.1120 C.2    82  ALA82       0.2591
     58  O         75.0640  -11.7650    1.3970 O.2    82  ALA82      -0.2718
     59  CB        77.8760  -11.3670    0.9640 C.3    82  ALA82       0.0304
     60  N         75.2870  -13.7690    0.5270 N.am   83  GLN83      -0.1979
     61  CA        73.8350  -13.8380    0.1970 C.3    83  GLN83       0.1601
     62  C         73.0400  -14.2100    1.4530 C.2    83  GLN83       0.2287
     63  O         71.8690  -13.9090    1.5690 O.2    83  GLN83      -0.2864
     64  CB        73.6150  -14.8990   -0.8930 C.3    83  GLN83       0.0394
     65  CG        72.5410  -14.4160   -1.8700 C.3    83  GLN83       0.0908
     66  CD        72.3950  -15.4260   -3.0090 C.2    83  GLN83       0.2608
     67  OE1       72.1420  -15.0540   -4.1380 O.2    83  GLN83      -0.2717
     68  NE2       72.5450  -16.6990   -2.7600 N.am   83  GLN83      -0.0878
     69  N         76.6200  -11.2790    7.2520 N.3    87  CYS87      -0.1235
     70  CA        77.6980  -10.2570    7.3760 C.3    87  CYS87       0.1677
     71  C         77.2230   -9.0200    8.0770 C.2    87  CYS87       0.2270
     72  O         76.1040   -8.5230    7.8840 O.2    87  CYS87      -0.2867
     73  CB        78.1120   -9.7870    5.8790 C.3    87  CYS87       0.0956
     74  SG        76.7920   -8.9810    4.9410 S.3    87  CYS87      -0.0801
@<TRIPOS>BOND
     1    20    19    2
     2    22    23    1
     3    19    18    1
     4    19    21   am
     5    18    15    1
     6    25    24    2
     7    24    23    1
     8    16    17    2
     9    16    15    1
    10    23    26    1
    11     1     7    1
    12     1     2    1
    13     7     6    1
    14    15    14    1
    15     8     9    1
    16     2     3    1
    17     2     5    1
    18    14    10   am
    19     6     5    1
    20    28    29    1
    21     3     4    2
    22    10     9    1
    23    10    11    2
    24    26    27    1
    25     9    12    1
    26    34    33    1
    27    33    32    1
    28    33    35    1
    29    54    52   ar
    30    29    32    1
    31    29    30    1
    32    12    13    1
    33    52    53   ar
    34    52    51    1
    35    31    30    2
    36    30    36   am
    37    50    51    1
    38    50    47    1
    39    67    66    2
    40    36    37    1
    41    47    46    1
    42    47    48    1
    43    46    38   am
    44    66    68   am
    45    66    65    1
    46    38    39    2
    47    38    37    1
    48    45    43   ar
    49    45    44   ar
    50    43    41   ar
    51    37    40    1
    52    44    42   ar
    53    41    40    1
    54    41    42   ar
    55    48    49    2
    56    65    64    1
    57    64    61    1
    58    61    60    1
    59    61    62    1
    60    60    57   am
    61    55    56    1
    62    59    56    1
    63    57    58    2
    64    57    56    1
    65    62    63    2
    66    74    73    1
    67    73    70    1
    68    69    70    1
    69    70    71    1
    70    72    71    2
