@<TRIPOS>MOLECULE
tmp/2ju8A00.pdb
 135 127 0 0 0
SMALL
GASTEIGER

@<TRIPOS>ATOM
      1  N         -5.5510  -12.3280    6.9070 N.3    18  PHE18      -0.1241
      2  CA        -5.5600  -10.9040    6.5790 C.3    18  PHE18       0.1605
      3  C         -6.8500  -10.5030    5.8620 C.2    18  PHE18       0.2264
      4  O         -7.5290   -9.5590    6.2670 O.2    18  PHE18      -0.2867
      5  CB        -4.3470  -10.5670    5.7010 C.3    18  PHE18       0.0534
      6  CG        -4.3980   -9.1920    5.0960 C.ar   18  PHE18      -0.0203
      7  CD1       -4.1000   -8.0720    5.8530 C.ar   18  PHE18      -0.0042
      8  CD2       -4.7450   -9.0230    3.7640 C.ar   18  PHE18      -0.0042
      9  CE1       -4.1470   -6.8090    5.2950 C.ar   18  PHE18      -0.0003
     10  CE2       -4.7930   -7.7620    3.2000 C.ar   18  PHE18      -0.0003
     11  CZ        -4.4940   -6.6540    3.9670 C.ar   18  PHE18      -0.0000
     12  N        -11.9190   -9.3900    2.0960 N.3    24  LEU24      -0.1245
     13  CA       -11.5230   -9.8400    0.7680 C.3    24  LEU24       0.1561
     14  C        -11.7700  -11.3410    0.6110 C.2    24  LEU24       0.2260
     15  O        -11.3740  -12.1300    1.4670 O.2    24  LEU24      -0.2867
     16  CB       -10.0460   -9.5180    0.5210 C.3    24  LEU24       0.0270
     17  CG        -9.5900   -9.6030   -0.9360 C.3    24  LEU24       0.0019
     18  CD1      -10.2690   -8.5310   -1.7740 C.3    24  LEU24       0.0001
     19  CD2       -8.0780   -9.4670   -1.0260 C.3    24  LEU24       0.0001
     20  N        -10.2640  -14.1710   -4.7800 N.3    28  LEU28      -0.1245
     21  CA        -9.4610  -13.1070   -5.3730 C.3    28  LEU28       0.1561
     22  C         -7.9970  -13.1850   -4.9420 C.2    28  LEU28       0.2260
     23  O         -7.0950  -12.9470   -5.7450 O.2    28  LEU28      -0.2867
     24  CB       -10.0420  -11.7380   -5.0070 C.3    28  LEU28       0.0270
     25  CG       -11.0850  -11.1900   -5.9870 C.3    28  LEU28       0.0019
     26  CD1      -12.2600  -12.1470   -6.1200 C.3    28  LEU28       0.0001
     27  CD2      -11.5610   -9.8170   -5.5380 C.3    28  LEU28       0.0001
     28  N         -5.8230  -15.8070   -6.8410 N.3    31  LYS31      -0.1231
     29  CA        -5.4550  -15.3380   -8.1740 C.3    31  LYS31       0.1693
     30  C         -4.3880  -14.2430   -8.1140 C.2    31  LYS31       0.2592
     31  O         -3.5510  -14.1330   -9.0090 O.2    31  LYS31      -0.2718
     32  CB        -6.6890  -14.8140   -8.9120 C.3    31  LYS31       0.0285
     33  CG        -7.7730  -15.8580   -9.1030 C.3    31  LYS31       0.0035
     34  CD        -9.0260  -15.2430   -9.7030 C.3    31  LYS31       0.0206
     35  CE       -10.0320  -16.3090  -10.1040 C.3    31  LYS31       0.1093
     36  NZ        -9.4620  -17.2730  -11.0850 N.3    31  LYS31      -0.1314
     37  N         -4.4230  -13.4400   -7.0530 N.am   32  GLY32      -0.1957
     38  CA        -3.4720  -12.3470   -6.9140 C.3    32  GLY32       0.1869
     39  C         -2.1200  -12.7680   -6.3670 C.2    32  GLY32       0.2309
     40  O         -1.0990  -12.1740   -6.7130 O.2    32  GLY32      -0.2863
     41  N          0.1980  -13.7620   -8.9300 N.3    35  ILE35      -0.1245
     42  CA         0.5460  -12.6610   -9.8210 C.3    35  ILE35       0.1561
     43  C          1.3430  -11.5860   -9.0840 C.2    35  ILE35       0.2260
     44  O          0.8730  -11.0110   -8.1030 O.2    35  ILE35      -0.2867
     45  CB        -0.7150  -12.0250  -10.4390 C.3    35  ILE35       0.0252
     46  CG1       -1.5030  -13.0780  -11.2250 C.3    35  ILE35       0.0019
     47  CG2       -0.3380  -10.8530  -11.3370 C.3    35  ILE35       0.0019
     48  CD1       -2.8390  -12.5840  -11.7350 C.3    35  ILE35       0.0001
     49  N         -0.6650    1.2100   -7.9550 N.3    52  ILE52      -0.1245
     50  CA        -0.5910   -0.2410   -7.8310 C.3    52  ILE52       0.1561
     51  C         -1.4620   -0.9110   -8.8900 C.2    52  ILE52       0.2260
     52  O         -2.6530   -0.6210   -8.9990 O.2    52  ILE52      -0.2867
     53  CB        -1.0360   -0.7130   -6.4330 C.3    52  ILE52       0.0252
     54  CG1       -0.1780   -0.0580   -5.3450 C.3    52  ILE52       0.0019
     55  CG2       -0.9620   -2.2300   -6.3340 C.3    52  ILE52       0.0019
     56  CD1        1.2870   -0.4420   -5.4060 C.3    52  ILE52       0.0001
     57  N         -3.0300   -4.4420  -10.5390 N.3    54  TYR54      -0.1227
     58  CA        -3.3640   -5.8390  -10.2860 C.3    54  TYR54       0.1736
     59  C         -3.9710   -6.4790  -11.5290 C.2    54  TYR54       0.2596
     60  O         -5.1010   -6.1690  -11.9060 O.2    54  TYR54      -0.2718
     61  CB        -4.3390   -5.9570   -9.1130 C.3    54  TYR54       0.0548
     62  CG        -3.7180   -5.6560   -7.7680 C.ar   54  TYR54      -0.0200
     63  CD1       -2.6850   -6.4390   -7.2670 C.ar   54  TYR54      -0.0009
     64  CD2       -4.1610   -4.5860   -7.0030 C.ar   54  TYR54      -0.0009
     65  CE1       -2.1120   -6.1620   -6.0410 C.ar   54  TYR54       0.0417
     66  CE2       -3.5940   -4.3020   -5.7760 C.ar   54  TYR54       0.0417
     67  CZ        -2.5790   -5.1130   -5.2900 C.ar   54  TYR54       0.1957
     68  OH        -2.0030   -4.8150   -4.0780 O.3    54  TYR54      -0.2866
     69  N         -3.2170   -7.3730  -12.1600 N.am   55  GLY55      -0.1942
     70  CA        -3.7020   -8.0400  -13.3540 C.3    55  GLY55       0.2014
     71  C         -3.8590   -7.0940  -14.5310 C.2    55  GLY55       0.2640
     72  O         -2.9650   -6.9870  -15.3700 O.2    55  GLY55      -0.2714
     73  N         -4.9960   -6.4060  -14.5910 N.am   56  SER56      -0.1935
     74  CA        -5.2650   -5.4680  -15.6760 C.3    56  SER56       0.2055
     75  C         -5.9230   -4.1940  -15.1520 C.2    56  SER56       0.2642
     76  O         -6.4760   -3.4080  -15.9240 O.2    56  SER56      -0.2714
     77  CB        -6.1620   -6.1190  -16.7290 C.3    56  SER56       0.2130
     78  OG        -7.4060   -6.5050  -16.1700 O.3    56  SER56      -0.2179
     79  N         -5.8570   -3.9930  -13.8400 N.am   57  LYS57      -0.1977
     80  CA        -6.4430   -2.8110  -13.2160 C.3    57  LYS57       0.1596
     81  C         -5.3610   -1.8930  -12.6670 C.2    57  LYS57       0.2287
     82  O         -4.4110   -2.3470  -12.0310 O.2    57  LYS57      -0.2864
     83  CB        -7.3950   -3.2110  -12.0910 C.3    57  LYS57       0.0298
     84  CG        -8.0410   -2.0230  -11.3960 C.3    57  LYS57       0.0038
     85  CD        -8.9890   -2.4750  -10.3010 C.3    57  LYS57       0.0206
     86  CE       -10.3060   -2.9740  -10.8730 C.3    57  LYS57       0.1093
     87  NZ       -11.0130   -1.9140  -11.6420 N.3    57  LYS57      -0.1314
     88  N         -4.4590    1.3040  -10.1970 N.3    59  ILE59      -0.1245
     89  CA        -4.9270    2.0800   -9.0560 C.3    59  ILE59       0.1561
     90  C         -4.0170    3.2760   -8.8020 C.2    59  ILE59       0.2260
     91  O         -2.8400    3.1110   -8.4890 O.2    59  ILE59      -0.2867
     92  CB        -4.9940    1.2180   -7.7790 C.3    59  ILE59       0.0252
     93  CG1       -5.9100    0.0080   -7.9930 C.3    59  ILE59       0.0019
     94  CG2       -5.4700    2.0510   -6.5950 C.3    59  ILE59       0.0019
     95  CD1       -7.3490    0.3720   -8.3010 C.3    59  ILE59       0.0001
     96  N         -3.3920    6.9660   -6.6950 N.3    61  ASN61      -0.1240
     97  CA        -3.7500    7.7270   -5.5010 C.3    61  ASN61       0.1653
     98  C         -2.8160    8.9220   -5.3180 C.2    61  ASN61       0.2266
     99  O         -1.7190    8.9530   -5.8730 O.2    61  ASN61      -0.2867
    100  CB        -3.6960    6.8310   -4.2610 C.3    61  ASN61       0.1155
    101  CG        -4.8090    5.7990   -4.2360 C.2    61  ASN61       0.2627
    102  OD1       -4.6180    4.6750   -3.7680 O.2    61  ASN61      -0.2716
    103  ND2       -5.9820    6.1780   -4.7300 N.am   61  ASN61      -0.0877
    104  N         -8.7600    9.4760    1.3260 N.3    71  LEU71      -0.1231
    105  CA        -8.5980    8.4910    0.2640 C.3    71  LEU71       0.1693
    106  C         -9.7630    7.5110    0.2560 C.2    71  LEU71       0.2592
    107  O        -10.2900    7.1480    1.3070 O.2    71  LEU71      -0.2718
    108  CB        -7.2790    7.7330    0.4370 C.3    71  LEU71       0.0284
    109  CG        -7.0800    6.5550   -0.5200 C.3    71  LEU71       0.0019
    110  CD1       -6.9960    7.0410   -1.9590 C.3    71  LEU71       0.0001
    111  CD2       -5.8320    5.7720   -0.1450 C.3    71  LEU71       0.0001
    112  N        -10.1610    7.0830   -0.9380 N.am   72  GLU72      -0.1966
    113  CA       -11.2640    6.1420   -1.0790 C.3    72  GLU72       0.1733
    114  C        -10.7610    4.7050   -0.9990 C.2    72  GLU72       0.2617
    115  O         -9.6470    4.4020   -1.4270 O.2    72  GLU72      -0.2715
    116  CB       -11.9900    6.3710   -2.4090 C.3    72  GLU72       0.0429
    117  CG       -11.3270    5.6970   -3.6000 C.3    72  GLU72       0.1163
    118  CD       -11.9890    6.0540   -4.9160 C.2    72  GLU72       0.3649
    119  OE1      -11.6080    7.0840   -5.5130 O.co2  72  GLU72      -0.2457
    120  OE2      -12.8890    5.3050   -5.3500 O.co2  72  GLU72      -0.2457
    121  N        -11.5860    3.8250   -0.4460 N.am   73  THR73      -0.1937
    122  CA       -11.2250    2.4210   -0.3180 C.3    73  THR73       0.2028
    123  C        -11.7150    1.6350   -1.5320 C.2    73  THR73       0.2642
    124  O        -12.3580    2.1940   -2.4200 O.2    73  THR73      -0.2714
    125  CB       -11.8100    1.8040    0.9650 C.3    73  THR73       0.1808
    126  OG1      -11.3930    0.4400    1.0910 O.3    73  THR73      -0.2208
    127  CG2      -13.3270    1.8750    0.9560 C.3    73  THR73       0.0379
    128  N        -11.4090    0.3430   -1.5710 N.am   74  MET74      -0.1976
    129  CA       -11.8230   -0.5010   -2.6870 C.3    74  MET74       0.1605
    130  C        -13.3430   -0.6510   -2.7270 C.2    74  MET74       0.2287
    131  O        -13.9060   -1.0760   -3.7360 O.2    74  MET74      -0.2864
    132  CB       -11.1580   -1.8760   -2.5920 C.3    74  MET74       0.0413
    133  CG       -11.3630   -2.7380   -3.8270 C.3    74  MET74       0.0598
    134  SD       -10.3780   -4.2480   -3.7950 S.3    74  MET74      -0.1393
    135  CE       -11.0340   -5.0510   -2.3360 C.3    74  MET74       0.0692
@<TRIPOS>BOND
     1    77    78    1
     2    77    74    1
     3    76    75    2
     4    74    75    1
     5    74    73    1
     6    72    71    2
     7    75    79   am
     8    73    71   am
     9    71    70    1
    10    79    80    1
    11    70    69    1
    12    80    81    1
    13    80    83    1
    14    81    82    2
    15    69    59   am
    16    83    84    1
    17    60    59    2
    18    48    46    1
    19    87    86    1
    20    59    58    1
    21    84    85    1
    22    47    45    1
    23    46    45    1
    24    36    35    1
    25    86    85    1
    26    57    58    1
    27    45    42    1
    28    58    61    1
    29    88    89    1
    30    35    34    1
    31    42    43    1
    32    42    41    1
    33    34    33    1
    34    61    62    1
    35    33    32    1
    36    43    44    2
    37    89    90    1
    38    89    92    1
    39    31    30    2
    40    52    51    2
    41    32    29    1
    42    51    50    1
    43    90    91    2
    44    95    93    1
    45    29    30    1
    46    29    28    1
    47    30    37   am
    48    93    92    1
    49    49    50    1
    50    50    53    1
    51    92    94    1
    52    62    63   ar
    53    62    64   ar
    54    63    65   ar
    55    37    38    1
    56    64    66   ar
    57    38    39    1
    58    40    39    2
    59    96    97    1
    60    53    55    1
    61    53    54    1
    62    26    25    1
    63    65    67   ar
    64    25    27    1
    65    25    24    1
    66    99    98    2
    67    66    67   ar
    68    23    22    2
    69   119   118   ar
    70    97    98    1
    71    97   100    1
    72    56    54    1
    73    21    24    1
    74    21    22    1
    75    21    20    1
    76   120   118   ar
    77    67    68    1
    78   118   117    1
    79   103   101   am
    80   100   101    1
    81   101   102    2
    82   133   134    1
    83   133   132    1
    84   134   135    1
    85   131   130    2
    86   117   116    1
    87   130   129    1
    88   129   132    1
    89   129   128    1
    90   124   123    2
    91   116   113    1
    92   110   109    1
    93    18    17    1
    94   128   123   am
    95   123   122    1
    96   115   114    2
    97   113   114    1
    98   113   112    1
    99    19    17    1
   100   114   121   am
   101   112   106   am
   102    17    16    1
   103   109   111    1
   104   109   108    1
   105   121   122    1
   106   122   125    1
   107   106   105    1
   108   106   107    2
   109   105   108    1
   110   105   104    1
   111    16    13    1
   112    14    13    1
   113    14    15    2
   114    13    12    1
   115   127   125    1
   116   125   126    1
   117    10     8   ar
   118    10    11   ar
   119     8     6   ar
   120    11     9   ar
   121     6     5    1
   122     6     7   ar
   123     9     7   ar
   124     5     2    1
   125     3     4    2
   126     3     2    1
   127     2     1    1
