@<TRIPOS>MOLECULE
tmp/2k0gA00.pdb
 136 131 0 0 0
SMALL
GASTEIGER

@<TRIPOS>ATOM
      1  N         28.9460   -7.4110   -5.7650 N.3    50  CYS50      -0.1235
      2  CA        29.9750   -6.8130   -6.5990 C.3    50  CYS50       0.1677
      3  C         30.9580   -7.9110   -7.0120 C.2    50  CYS50       0.2270
      4  O         31.2550   -8.8110   -6.2260 O.2    50  CYS50      -0.2867
      5  CB        30.6790   -5.6570   -5.8870 C.3    50  CYS50       0.0956
      6  SG        29.5010   -4.7920   -4.7850 S.3    50  CYS50      -0.0801
      7  N         33.5860   -9.8180    2.2730 N.3    69  VAL69      -0.1245
      8  CA        34.3070   -9.5620    1.0380 C.3    69  VAL69       0.1561
      9  C         34.8940  -10.8750    0.5140 C.2    69  VAL69       0.2260
     10  O         35.3190  -11.7240    1.2950 O.2    69  VAL69      -0.2867
     11  CB        35.3670   -8.4830    1.2660 C.3    69  VAL69       0.0252
     12  CG1       36.1140   -8.1640   -0.0310 C.3    69  VAL69       0.0019
     13  CG2       34.7440   -7.2210    1.8650 C.3    69  VAL69       0.0019
     14  N         41.9710  -11.8790    2.2270 N.3    73  ASN73      -0.1226
     15  CA        42.0180  -11.0540    3.4220 C.3    73  ASN73       0.1770
     16  C         40.8550  -10.0600    3.3960 C.2    73  ASN73       0.2439
     17  O         41.0690   -8.8480    3.4030 O.2    73  ASN73      -0.2733
     18  CB        43.3220  -10.2550    3.4900 C.3    73  ASN73       0.1168
     19  CG        44.4030  -11.0340    4.2420 C.2    73  ASN73       0.2627
     20  OD1       45.2810  -11.6480    3.6580 O.2    73  ASN73      -0.2716
     21  ND2       44.2900  -10.9750    5.5650 N.am   73  ASN73      -0.0877
     22  N         39.6180  -10.6220    3.3660 N.am   74  PRO74      -0.2718
     23  CA        38.4210   -9.7990    3.3390 C.3    74  PRO74       0.1535
     24  C         38.1460   -9.1860    4.7140 C.2    74  PRO74       0.2598
     25  O         39.0260   -9.1590    5.5720 O.2    74  PRO74      -0.2715
     26  CB        37.3130  -10.7300    2.8720 C.3    74  PRO74       0.0310
     27  CG        37.8300  -12.1400    3.1000 C.3    74  PRO74       0.0237
     28  CD        39.3260  -12.0540    3.3570 C.3    74  PRO74       0.0939
     29  N         36.9210   -8.7100    4.8790 N.am   75  VAL75      -0.1978
     30  CA        36.5200   -8.0980    6.1340 C.3    75  VAL75       0.1596
     31  C         35.0060   -8.2460    6.3070 C.2    75  VAL75       0.2287
     32  O         34.2950   -8.5450    5.3500 O.2    75  VAL75      -0.2864
     33  CB        36.9870   -6.6420    6.1810 C.3    75  VAL75       0.0276
     34  CG1       36.2130   -5.8510    7.2380 C.3    75  VAL75       0.0022
     35  CG2       38.4940   -6.5580    6.4280 C.3    75  VAL75       0.0022
     36  N         31.5200   -6.5880    6.9720 N.3    77  LEU77      -0.1245
     37  CA        30.8140   -5.3210    6.8650 C.3    77  LEU77       0.1561
     38  C         29.5250   -5.3890    7.6870 C.2    77  LEU77       0.2260
     39  O         28.9640   -6.4670    7.8820 O.2    77  LEU77      -0.2867
     40  CB        30.5880   -4.9570    5.3960 C.3    77  LEU77       0.0270
     41  CG        31.8020   -4.4050    4.6480 C.3    77  LEU77       0.0019
     42  CD1       31.5460   -4.3640    3.1400 C.3    77  LEU77       0.0001
     43  CD2       32.2100   -3.0370    5.1970 C.3    77  LEU77       0.0001
     44  N         29.5500    0.7650    0.0590 N.3    83  PHE83      -0.1227
     45  CA        30.5770    0.1760   -0.7830 C.3    83  PHE83       0.1736
     46  C         30.1840    0.2510   -2.2600 C.2    83  PHE83       0.2596
     47  O         29.0080    0.3980   -2.5870 O.2    83  PHE83      -0.2718
     48  CB        30.7010   -1.2940   -0.3750 C.3    83  PHE83       0.0547
     49  CG        29.3660   -2.0370   -0.3130 C.ar   83  PHE83      -0.0202
     50  CD1       28.4750   -1.7530    0.6760 C.ar   83  PHE83      -0.0042
     51  CD2       29.0700   -2.9830   -1.2440 C.ar   83  PHE83      -0.0042
     52  CE1       27.2360   -2.4440    0.7340 C.ar   83  PHE83      -0.0003
     53  CE2       27.8300   -3.6730   -1.1850 C.ar   83  PHE83      -0.0003
     54  CZ        26.9390   -3.3890   -0.1980 C.ar   83  PHE83      -0.0000
     55  N         31.1930    0.1470   -3.1130 N.am   84  GLY84      -0.1942
     56  CA        30.9690    0.2020   -4.5480 C.3    84  GLY84       0.2014
     57  C         30.8780    1.6500   -5.0340 C.2    84  GLY84       0.2639
     58  O         30.1390    1.9480   -5.9710 O.2    84  GLY84      -0.2714
     59  N         31.6410    2.5100   -4.3750 N.am   85  GLU85      -0.1963
     60  CA        31.6560    3.9190   -4.7290 C.3    85  GLU85       0.1733
     61  C         32.9310    4.2570   -5.5040 C.2    85  GLU85       0.2616
     62  O         32.9840    5.2650   -6.2090 O.2    85  GLU85      -0.2715
     63  CB        31.5220    4.7980   -3.4830 C.3    85  GLU85       0.0429
     64  CG        32.6940    4.5740   -2.5260 C.3    85  GLU85       0.1163
     65  CD        32.4040    3.4190   -1.5650 C.2    85  GLU85       0.3649
     66  OE1       31.2930    3.3270   -1.0220 O.co2  85  GLU85      -0.2457
     67  OE2       33.3820    2.5960   -1.3930 O.co2  85  GLU85      -0.2457
     68  N         33.9270    3.3970   -5.3490 N.am   86  MET86      -0.1963
     69  CA        35.1970    3.5920   -6.0260 C.3    86  MET86       0.1736
     70  C         35.0100    3.6240   -7.5440 C.2    86  MET86       0.2616
     71  O         35.6790    4.3870   -8.2400 O.2    86  MET86      -0.2715
     72  CB        36.1540    2.4590   -5.6520 C.3    86  MET86       0.0427
     73  CG        37.5210    3.0090   -5.2390 C.3    86  MET86       0.0599
     74  SD        38.2830    3.8500   -6.6160 S.3    86  MET86      -0.1393
     75  CE        39.7170    2.8140   -6.8560 C.3    86  MET86       0.0692
     76  N         34.0980    2.7850   -8.0140 N.am   87  ALA87      -0.1977
     77  CA        33.8160    2.7060   -9.4370 C.3    87  ALA87       0.1597
     78  C         33.0260    3.9460   -9.8640 C.2    87  ALA87       0.2287
     79  O         33.3330    4.5590  -10.8850 O.2    87  ALA87      -0.2864
     80  CB        33.0680    1.4060   -9.7380 C.3    87  ALA87       0.0319
     81  N         37.0520   -0.7630  -12.2940 N.3    93  PRO93      -0.2102
     82  CA        36.2860   -1.9710  -12.0400 C.3    93  PRO93       0.1504
     83  C         36.3200   -2.3380  -10.5550 C.2    93  PRO93       0.2576
     84  O         37.1930   -1.8840   -9.8190 O.2    93  PRO93      -0.2718
     85  CB        36.9160   -3.0300  -12.9290 C.3    93  PRO93       0.0282
     86  CG        38.2940   -2.5020  -13.2940 C.3    93  PRO93       0.0208
     87  CD        38.3380   -1.0270  -12.9330 C.3    93  PRO93       0.0893
     88  N         35.3560   -3.1580  -10.1600 N.am   94  ARG94      -0.1966
     89  CA        35.2640   -3.5920   -8.7760 C.3    94  ARG94       0.1729
     90  C         36.6570   -3.8980   -8.2220 C.2    94  ARG94       0.2617
     91  O         37.3310   -4.8100   -8.6970 O.2    94  ARG94      -0.2715
     92  CB        34.3870   -4.8390   -8.6470 C.3    94  ARG94       0.0348
     93  CG        32.9840   -4.4750   -8.1550 C.3    94  ARG94       0.0492
     94  CD        32.2850   -3.5340   -9.1390 C.3    94  ARG94       0.2205
     95  NE        32.0090   -2.2340   -8.4880 N.pl3  94  ARG94      -0.0865
     96  CZ        30.8980   -1.9640   -7.7900 C.cat  94  ARG94       0.5346
     97  NH1       29.9510   -2.9010   -7.6500 N.pl3  94  ARG94       0.1354
     98  NH2       30.7330   -0.7560   -7.2330 N.pl3  94  ARG94       0.1354
     99  N         37.0460   -3.1180   -7.2240 N.am   95  SER95      -0.1936
    100  CA        38.3460   -3.2940   -6.6000 C.3    95  SER95       0.2055
    101  C         38.4510   -4.6940   -5.9930 C.2    95  SER95       0.2642
    102  O         39.5480   -5.2280   -5.8410 O.2    95  SER95      -0.2714
    103  CB        38.5910   -2.2300   -5.5270 C.3    95  SER95       0.2130
    104  OG        37.3820   -1.8300   -4.8870 O.3    95  SER95      -0.2179
    105  N         37.2930   -5.2490   -5.6630 N.am   96  ALA96      -0.1977
    106  CA        37.2410   -6.5770   -5.0760 C.3    96  ALA96       0.1597
    107  C         35.8080   -7.1090   -5.1560 C.2    96  ALA96       0.2287
    108  O         34.8650   -6.3380   -5.3240 O.2    96  ALA96      -0.2864
    109  CB        37.7630   -6.5210   -3.6390 C.3    96  ALA96       0.0319
    110  N         32.3950   -8.5960   -3.8200 N.3    98  VAL98      -0.1245
    111  CA        31.5890   -8.4380   -2.6210 C.3    98  VAL98       0.1561
    112  C         30.4550   -9.4630   -2.6350 C.2    98  VAL98       0.2260
    113  O         29.7740   -9.6280   -3.6460 O.2    98  VAL98      -0.2867
    114  CB        31.0900   -6.9950   -2.5130 C.3    98  VAL98       0.0252
    115  CG1       29.8150   -6.9180   -1.6700 C.3    98  VAL98       0.0019
    116  CG2       32.1770   -6.0800   -1.9490 C.3    98  VAL98       0.0019
    117  N         40.8870    4.7270    0.5970 N.3   134  GLU134     -0.1231
    118  CA        41.1080    3.7650    1.6630 C.3   134  GLU134      0.1699
    119  C         40.8140    2.3470    1.1690 C.2   134  GLU134      0.2592
    120  O         41.5700    1.4180    1.4500 O.2   134  GLU134     -0.2718
    121  CB        40.2610    4.1030    2.8920 C.3   134  GLU134      0.0402
    122  CG        41.1430    4.5390    4.0630 C.3   134  GLU134      0.1161
    123  CD        41.4830    3.3500    4.9640 C.2   134  GLU134      0.3649
    124  OE1       42.5200    2.6980    4.7660 O.co2 134  GLU134     -0.2457
    125  OE2       40.6270    3.1110    5.8990 O.co2 134  GLU134     -0.2457
    126  N         39.7130    2.2250    0.4410 N.am  135  ARG135     -0.1980
    127  CA        39.3090    0.9360   -0.0950 C.3   135  ARG135      0.1597
    128  C         40.2450    0.5180   -1.2320 C.2   135  ARG135      0.2287
    129  O         40.6410   -0.6430   -1.3190 O.2   135  ARG135     -0.2864
    130  CB        37.8730    0.9830   -0.6180 C.3   135  ARG135      0.0334
    131  CG        36.8810    0.5490    0.4650 C.3   135  ARG135      0.0492
    132  CD        36.5570    1.7100    1.4080 C.3   135  ARG135      0.2205
    133  NE        35.6180    1.2610    2.4600 N.pl3 135  ARG135     -0.0865
    134  CZ        34.2930    1.1600    2.2900 C.cat 135  ARG135      0.5346
    135  NH1       33.7420    1.4770    1.1090 N.pl3 135  ARG135      0.1354
    136  NH2       33.5180    0.7430    3.3010 N.pl3 135  ARG135      0.1354
@<TRIPOS>BOND
     1    86    87    1
     2    86    85    1
     3    87    81    1
     4    85    82    1
     5    81    82    1
     6    82    83    1
     7    79    78    2
     8    83    88   am
     9    83    84    2
    10    88    89    1
    11    78    77    1
    12    80    77    1
    13    77    76    1
    14    94    95    1
    15    94    93    1
    16    89    92    1
    17    89    90    1
    18    91    90    2
    19    92    93    1
    20    95    96    2
    21    71    70    2
    22    90    99   am
    23    76    70   am
    24    96    97    1
    25    96    98    1
    26    70    69    1
    27    99   100    1
    28     3     2    1
    29     3     4    2
    30    75    74    1
    31    74    73    1
    32   100   101    1
    33   100   103    1
    34     2     5    1
    35     2     1    1
    36    62    61    2
    37    69    72    1
    38    69    68    1
    39   101   102    2
    40   101   105   am
    41    58    57    2
    42     5     6    1
    43   105   106    1
    44    72    73    1
    45   103   104    1
    46    61    68   am
    47    61    60    1
    48   108   107    2
    49   107   106    1
    50   106   109    1
    51    57    56    1
    52    57    59   am
    53    60    59    1
    54    60    63    1
    55    56    55    1
    56   110   111    1
    57   113   112    2
    58    63    64    1
    59    55    46   am
    60   112   111    1
    61   111   114    1
    62    47    46    2
    63    64    65    1
    64   114   116    1
    65   114   115    1
    66    46    45    1
    67    65    67   ar
    68    65    66   ar
    69   129   128    2
    70    51    53   ar
    71    51    49   ar
    72   128   127    1
    73    53    54   ar
    74    45    48    1
    75    45    44    1
    76   130   127    1
    77   130   131    1
    78    48    49    1
    79    49    50   ar
    80    54    52   ar
    81   127   126    1
    82    12    11    1
    83   126   119   am
    84   131   132    1
    85     9     8    1
    86     9    10    2
    87   117   118    1
    88    50    52   ar
    89     8    11    1
    90     8     7    1
    91   135   134    1
    92   119   120    2
    93   119   118    1
    94    11    13    1
    95   132   133    1
    96   118   121    1
    97    14    15    1
    98   134   133    2
    99   134   136    1
   100    26    27    1
   101    26    23    1
   102   121   122    1
   103    27    28    1
   104    42    41    1
   105    23    22    1
   106    23    24    1
   107    28    22    1
   108    22    16   am
   109    16    17    2
   110    16    15    1
   111    15    18    1
   112    18    19    1
   113    20    19    2
   114   122   123    1
   115    19    21   am
   116    41    43    1
   117    41    40    1
   118    24    29   am
   119    24    25    2
   120   124   123   ar
   121    29    30    1
   122   123   125   ar
   123    32    31    2
   124    40    37    1
   125    30    33    1
   126    30    31    1
   127    33    35    1
   128    33    34    1
   129    37    36    1
   130    37    38    1
   131    38    39    2
