@<TRIPOS>MOLECULE
tmp/2k17B00.pdb
 199 203 0 0 0
SMALL
GASTEIGER

@<TRIPOS>ATOM
      1  N        -14.2640   11.4260    1.1970 N.3    14  TRP14      -0.1241
      2  CA       -14.3850   10.9830    2.5680 C.3    14  TRP14       0.1605
      3  C        -13.5250   11.8400    3.4710 C.2    14  TRP14       0.2264
      4  O        -13.8880   12.1130    4.6210 O.2    14  TRP14      -0.2867
      5  CB       -14.0320    9.5000    2.7300 C.3    14  TRP14       0.0550
      6  CG       -14.8550    8.5590    1.8850 C.ar   14  TRP14       0.0003
      7  CD1      -14.3900    7.5090    1.1570 C.ar   14  TRP14       0.0946
      8  CD2      -16.2780    8.5950    1.6630 C.ar   14  TRP14       0.0152
      9  NE1      -15.4310    6.8670    0.5320 N.ar   14  TRP14      -0.2442
     10  CE2      -16.5930    7.5220    0.8110 C.ar   14  TRP14       0.0810
     11  CE3      -17.3050    9.4200    2.1040 C.ar   14  TRP14       0.0012
     12  CZ2      -17.8920    7.2580    0.3990 C.ar   14  TRP14       0.0191
     13  CZ3      -18.5920    9.1630    1.6920 C.ar   14  TRP14       0.0001
     14  CH2      -18.8750    8.0880    0.8460 C.ar   14  TRP14       0.0015
     15  N         -6.3030   11.8100    2.9120 N.3    17  GLN17      -0.1231
     16  CA        -5.2690   12.4710    2.1680 C.3    17  GLN17       0.1698
     17  C         -4.8260   11.6060    1.0100 C.2    17  GLN17       0.2592
     18  O         -4.5200   10.4230    1.1730 O.2    17  GLN17      -0.2718
     19  CB        -4.0720   12.8370    3.0520 C.3    17  GLN17       0.0381
     20  CG        -4.2850   14.0510    3.9450 C.3    17  GLN17       0.0905
     21  CD        -3.1350   14.2800    4.9200 C.2    17  GLN17       0.2608
     22  OE1       -2.5010   13.3420    5.3970 O.2    17  GLN17      -0.2717
     23  NE2       -2.8080   15.5240    5.1650 N.am   17  GLN17      -0.0878
     24  N         -4.8690   12.1770   -0.1430 N.am   18  ILE18      -0.1966
     25  CA        -4.3920   11.5570   -1.3250 C.3    18  ILE18       0.1727
     26  C         -3.1620   12.3130   -1.7160 C.2    18  ILE18       0.2616
     27  O         -3.2220   13.5300   -1.9550 O.2    18  ILE18      -0.2715
     28  CB        -5.4120   11.6360   -2.4970 C.3    18  ILE18       0.0290
     29  CG1       -6.7670   10.9920   -2.1220 C.3    18  ILE18       0.0022
     30  CG2       -4.8280   11.0160   -3.7770 C.3    18  ILE18       0.0023
     31  CD1       -6.6840    9.5370   -1.6980 C.3    18  ILE18       0.0001
     32  N         -2.0690   11.6550   -1.7410 N.am   19  TRP19      -0.1974
     33  CA        -0.8540   12.2980   -2.0990 C.3    19  TRP19       0.1640
     34  C         -0.6800   12.3080   -3.5910 C.2    19  TRP19       0.2290
     35  O         -1.1060   11.3820   -4.2940 O.2    19  TRP19      -0.2864
     36  CB         0.3460   11.6930   -1.3700 C.3    19  TRP19       0.0576
     37  CG         0.3750   12.0410    0.0960 C.ar   19  TRP19       0.0006
     38  CD1        1.0630   13.0630    0.6720 C.ar   19  TRP19       0.0946
     39  CD2       -0.3210   11.3840    1.1680 C.ar   19  TRP19       0.0152
     40  NE1        0.8400   13.0820    2.0300 N.ar   19  TRP19      -0.2442
     41  CE2        0.0050   12.0590    2.3550 C.ar   19  TRP19       0.0810
     42  CE3       -1.1780   10.2960    1.2390 C.ar   19  TRP19       0.0012
     43  CZ2       -0.4960   11.6760    3.5870 C.ar   19  TRP19       0.0191
     44  CZ3       -1.6800    9.9180    2.4650 C.ar   19  TRP19       0.0001
     45  CH2       -1.3360   10.6040    3.6220 C.ar   19  TRP19       0.0015
     46  N         -2.0470    9.4660   -6.2240 N.3    28  ASP28      -0.1239
     47  CA        -1.8840    8.0920   -5.8210 C.3    28  ASP28       0.1674
     48  C         -3.0860    7.2730   -6.2410 C.2    28  ASP28       0.2266
     49  O         -4.2310    7.6830   -6.0500 O.2    28  ASP28      -0.2867
     50  CB        -1.6650    7.9920   -4.3170 C.3    28  ASP28       0.1410
     51  CG        -1.7140    6.5680   -3.8120 C.2    28  ASP28       0.3668
     52  OD1       -1.0780    5.6820   -4.4100 O.co2  28  ASP28      -0.2456
     53  OD2       -2.4550    6.3010   -2.8460 O.co2  28  ASP28      -0.2456
     54  N         -3.3380    4.1510   -5.2560 N.3    30  GLY30      -0.1210
     55  CA        -3.2630    3.0520   -4.3630 C.3    30  GLY30       0.1956
     56  C         -2.0340    2.3040   -4.7010 C.2    30  GLY30       0.2613
     57  O         -1.9960    1.0720   -4.7160 O.2    30  GLY30      -0.2717
     58  N         -1.0340    3.0630   -4.9810 N.am   31  SER31      -0.1938
     59  CA         0.2080    2.6000   -5.4690 C.3    31  SER31       0.2040
     60  C          1.2790    2.7140   -4.3890 C.2    31  SER31       0.2485
     61  O          1.1120    3.4750   -3.4300 O.2    31  SER31      -0.2729
     62  CB         0.5540    3.4300   -6.7170 C.3    31  SER31       0.2129
     63  OG         0.2840    4.8330   -6.5110 O.3    31  SER31      -0.2179
     64  N          2.3420    1.8980   -4.4640 N.am   32  PRO32      -0.2715
     65  CA         3.4550    1.9950   -3.5390 C.3    32  PRO32       0.1536
     66  C          4.2100    3.2910   -3.7650 C.2    32  PRO32       0.2598
     67  O          4.6850    3.5810   -4.8800 O.2    32  PRO32      -0.2715
     68  CB         4.3320    0.7840   -3.8800 C.3    32  PRO32       0.0310
     69  CG         3.4540   -0.1110   -4.6710 C.3    32  PRO32       0.0237
     70  CD         2.5440    0.8000   -5.4260 C.3    32  PRO32       0.0939
     71  N          4.2640    4.0930   -2.7490 N.am   33  MET33      -0.1964
     72  CA         4.9170    5.3640   -2.8360 C.3    33  MET33       0.1736
     73  C          6.0200    5.4010   -1.8190 C.2    33  MET33       0.2616
     74  O          5.9810    4.6450   -0.8240 O.2    33  MET33      -0.2715
     75  CB         3.9230    6.5050   -2.5760 C.3    33  MET33       0.0427
     76  CG         2.6660    6.4410   -3.4320 C.3    33  MET33       0.0599
     77  SD         1.5790    7.8580   -3.2070 S.3    33  MET33      -0.1393
     78  CE         2.4850    9.1200   -4.0750 C.3    33  MET33       0.0692
     79  N          6.9950    6.2320   -2.0450 N.am   34  ILE34      -0.1963
     80  CA         8.0880    6.3580   -1.1290 C.3    34  ILE34       0.1727
     81  C          8.1150    7.7720   -0.5910 C.2    34  ILE34       0.2617
     82  O          7.8660    8.7430   -1.3280 O.2    34  ILE34      -0.2715
     83  CB         9.4650    5.9640   -1.7670 C.3    34  ILE34       0.0290
     84  CG1       10.5630    5.9040   -0.6930 C.3    34  ILE34       0.0022
     85  CG2        9.8680    6.9530   -2.8680 C.3    34  ILE34       0.0023
     86  CD1       11.8510    5.2870   -1.1790 C.3    34  ILE34       0.0001
     87  N          8.2980    7.8730    0.6840 N.am   35  GLY35      -0.1940
     88  CA         8.3960    9.1350    1.3100 C.3    35  GLY35       0.2014
     89  C          9.8170    9.4640    1.5590 C.2    35  GLY35       0.2639
     90  O         10.6020    8.5830    1.9410 O.2    35  GLY35      -0.2714
     91  N         10.1700   10.6810    1.3110 N.am   36  CYS36      -0.1953
     92  CA        11.4970   11.1450    1.5520 C.3    36  CYS36       0.1843
     93  C         11.7480   11.2540    3.0530 C.2    36  CYS36       0.2625
     94  O         10.8060   11.4390    3.8430 O.2    36  CYS36      -0.2714
     95  CB        11.7010   12.4840    0.8370 C.3    36  CYS36       0.0997
     96  SG        13.2740   13.3410    1.1880 S.3    36  CYS36      -0.0797
     97  N         12.9930   11.1100    3.4420 N.am   37  ASP37      -0.1971
     98  CA        13.3790   11.2020    4.8310 C.3    37  ASP37       0.1709
     99  C         13.6400   12.6330    5.2520 C.2    37  ASP37       0.2293
    100  O         13.9550   12.8890    6.4200 O.2    37  ASP37      -0.2864
    101  CB        14.6130   10.3340    5.1500 C.3    37  ASP37       0.1436
    102  CG        14.3030    8.8710    5.3930 C.2    37  ASP37       0.3671
    103  OD1       13.9290    8.5130    6.5400 O.co2  37  ASP37      -0.2456
    104  OD2       14.4690    8.0510    4.4790 O.co2  37  ASP37      -0.2456
    105  N          9.6250   14.6510    3.4430 N.3    40  ASP40      -0.1239
    106  CA         8.4640   13.7740    3.6860 C.3    40  ASP40       0.1674
    107  C          7.4640   13.8750    2.5440 C.2    40  ASP40       0.2266
    108  O          6.2560   13.6940    2.7310 O.2    40  ASP40      -0.2867
    109  CB         7.7600   14.0530    5.0380 C.3    40  ASP40       0.1410
    110  CG         8.5680   13.6660    6.2600 C.2    40  ASP40       0.3668
    111  OD1        8.5610   12.4730    6.6530 O.co2  40  ASP40      -0.2456
    112  OD2        9.1880   14.5470    6.8750 O.co2  40  ASP40      -0.2456
    113  N          5.9000   12.6340   -1.0840 N.3    42  TRP42      -0.1241
    114  CA         5.5170   11.3120   -1.5140 C.3    42  TRP42       0.1605
    115  C          5.5340   11.1690   -3.0070 C.2    42  TRP42       0.2264
    116  O          4.7070   11.7320   -3.7080 O.2    42  TRP42      -0.2867
    117  CB         4.1610   10.8950   -0.9200 C.3    42  TRP42       0.0550
    118  CG         4.2440   10.6260    0.5470 C.ar   42  TRP42       0.0003
    119  CD1        4.0280   11.5020    1.5650 C.ar   42  TRP42       0.0946
    120  CD2        4.6030    9.3910    1.1510 C.ar   42  TRP42       0.0152
    121  NE1        4.2410   10.8800    2.7720 N.ar   42  TRP42      -0.2442
    122  CE2        4.5970    9.5850    2.5420 C.ar   42  TRP42       0.0810
    123  CE3        4.9300    8.1430    0.6440 C.ar   42  TRP42       0.0012
    124  CZ2        4.9130    8.5680    3.4320 C.ar   42  TRP42       0.0191
    125  CZ3        5.2470    7.1340    1.5170 C.ar   42  TRP42       0.0001
    126  CH2        5.2380    7.3520    2.9040 C.ar   42  TRP42       0.0015
    127  N          7.1570    5.1250   -7.0270 N.3    45  TRP45      -0.1241
    128  CA         8.3800    4.3810   -7.2450 C.3    45  TRP45       0.1605
    129  C          8.9750    4.5880   -8.6550 C.2    45  TRP45       0.2264
    130  O         10.1490    5.0070   -8.7680 O.2    45  TRP45      -0.2867
    131  CB         8.1940    2.8990   -6.9360 C.3    45  TRP45       0.0550
    132  CG         8.0480    2.5760   -5.4870 C.ar   45  TRP45       0.0003
    133  CD1        8.0330    3.4410   -4.4250 C.ar   45  TRP45       0.0946
    134  CD2        7.9290    1.2740   -4.9420 C.ar   45  TRP45       0.0152
    135  NE1        7.9080    2.7360   -3.2560 N.ar   45  TRP45      -0.2442
    136  CE2        7.8340    1.4050   -3.5510 C.ar   45  TRP45       0.0810
    137  CE3        7.8870    0.0060   -5.5040 C.ar   45  TRP45       0.0012
    138  CZ2        7.6980    0.3080   -2.7180 C.ar   45  TRP45       0.0191
    139  CZ3        7.7560   -1.0780   -4.6780 C.ar   45  TRP45       0.0001
    140  CH2        7.6610   -0.9240   -3.3030 C.ar   45  TRP45       0.0015
    141  N         10.7160   -1.9990   -2.2370 N.3    53  ALA53      -0.1231
    142  CA        10.6120   -1.1990   -1.0330 C.3    53  ALA53       0.1679
    143  C         11.8250   -1.3510   -0.1290 C.2    53  ALA53       0.2434
    144  O         12.1690   -2.4730    0.2720 O.2    53  ALA53      -0.2733
    145  CB         9.3500   -1.5590   -0.2630 C.3    53  ALA53       0.0304
    146  N         12.5330   -0.2430    0.1670 N.am   54  PRO54      -0.2718
    147  CA        13.5600   -0.2520    1.1590 C.3    54  PRO54       0.1520
    148  C         12.9120   -0.0550    2.5370 C.2    54  PRO54       0.2440
    149  O         11.7590    0.4340    2.6290 O.2    54  PRO54      -0.2731
    150  CB        14.4580    0.9520    0.8010 C.3    54  PRO54       0.0310
    151  CG        13.7560    1.7010   -0.2780 C.3    54  PRO54       0.0237
    152  CD        12.3930    1.0870   -0.4440 C.3    54  PRO54       0.0939
    153  N         13.5950   -0.4350    3.6030 N.am   55  PRO55      -0.2716
    154  CA        13.0700   -0.3170    4.9520 C.3    55  PRO55       0.1536
    155  C         13.1080    1.1280    5.4380 C.2    55  PRO55       0.2598
    156  O         13.8440    1.9550    4.8900 O.2    55  PRO55      -0.2715
    157  CB        14.0410   -1.1710    5.7710 C.3    55  PRO55       0.0310
    158  CG        15.3230   -1.0820    5.0320 C.3    55  PRO55       0.0237
    159  CD        14.9500   -0.9950    3.5830 C.3    55  PRO55       0.0939
    160  N         12.3560    1.4270    6.4850 N.am   56  GLU56      -0.1978
    161  CA        12.3530    2.7800    7.0410 C.3    56  GLU56       0.1602
    162  C         13.6490    3.0560    7.7760 C.2    56  GLU56       0.2287
    163  O         14.0010    4.2070    8.0390 O.2    56  GLU56      -0.2864
    164  CB        11.1620    3.0200    7.9550 C.3    56  GLU56       0.0415
    165  CG         9.8330    2.9400    7.2470 C.3    56  GLU56       0.1163
    166  CD         8.7090    3.4450    8.1010 C.2    56  GLU56       0.3649
    167  OE1        8.5980    4.6610    8.2790 O.co2  56  GLU56      -0.2457
    168  OE2        7.9080    2.6460    8.6050 O.co2  56  GLU56      -0.2457
    169  N         16.4980    2.4080    6.5280 N.3    58  MET58      -0.1230
    170  CA        17.3790    2.9650    5.5460 C.3    58  MET58       0.1702
    171  C         16.7940    4.2650    5.0880 C.2    58  MET58       0.2592
    172  O         15.5770    4.3710    4.8690 O.2    58  MET58      -0.2718
    173  CB        17.5850    2.0170    4.3590 C.3    58  MET58       0.0401
    174  CG        18.5370    2.5580    3.2930 C.3    58  MET58       0.0596
    175  SD        18.7670    1.4280    1.8990 S.3    58  MET58      -0.1393
    176  CE        19.9210    2.3850    0.9130 C.3    58  MET58       0.0692
    177  N         17.6130    5.2380    4.9780 N.am   59  GLN59      -0.1966
    178  CA        17.1650    6.5280    4.5840 C.3    59  GLN59       0.1733
    179  C         17.2220    6.6910    3.1010 C.2    59  GLN59       0.2616
    180  O         18.0060    6.0270    2.4140 O.2    59  GLN59      -0.2715
    181  CB        17.9310    7.6320    5.2790 C.3    59  GLN59       0.0408
    182  CG        17.7470    7.6310    6.7750 C.3    59  GLN59       0.0908
    183  CD        18.3090    8.8610    7.4140 C.2    59  GLN59       0.2608
    184  OE1       19.4710    8.9070    7.8140 O.2    59  GLN59      -0.2717
    185  NE2       17.5040    9.8780    7.4840 N.am   59  GLN59      -0.0878
    186  N         16.3940    7.5490    2.6190 N.am   60  TRP60      -0.1974
    187  CA        16.2950    7.8330    1.2250 C.3    60  TRP60       0.1640
    188  C         15.8550    9.2600    1.0640 C.2    60  TRP60       0.2290
    189  O         15.0220    9.7590    1.8280 O.2    60  TRP60      -0.2864
    190  CB        15.3010    6.8720    0.5510 C.3    60  TRP60       0.0576
    191  CG        15.1120    7.0860   -0.9260 C.ar   60  TRP60       0.0006
    192  CD1       15.8120    6.5030   -1.9400 C.ar   60  TRP60       0.0946
    193  CD2       14.1460    7.9400   -1.5450 C.ar   60  TRP60       0.0152
    194  NE1       15.3390    6.9440   -3.1530 N.ar   60  TRP60      -0.2442
    195  CE2       14.3110    7.8280   -2.9340 C.ar   60  TRP60       0.0810
    196  CE3       13.1570    8.7870   -1.0470 C.ar   60  TRP60       0.0012
    197  CZ2       13.5150    8.5340   -3.8320 C.ar   60  TRP60       0.0191
    198  CZ3       12.3770    9.4850   -1.9290 C.ar   60  TRP60       0.0001
    199  CH2       12.5540    9.3550   -3.3080 C.ar   60  TRP60       0.0015
@<TRIPOS>BOND
     1   130   129    2
     2   129   128    1
     3   128   127    1
     4   128   131    1
     5   131   132    1
     6    62    63    1
     7    62    59    1
     8    48    49    2
     9    48    47    1
    10    46    47    1
    11    47    50    1
    12   137   134   ar
    13   137   139   ar
    14   132   134   ar
    15   132   133   ar
    16    59    58    1
    17    59    60    1
    18    70    69    1
    19    70    64    1
    20    54    55    1
    21    58    56   am
    22   134   136   ar
    23    67    66    2
    24    57    56    2
    25    56    55    1
    26   139   140   ar
    27    69    68    1
    28    64    60   am
    29    64    65    1
    30   133   135   ar
    31    52    51   ar
    32    60    61    2
    33    50    51    1
    34    35    34    2
    35    78    77    1
    36    68    65    1
    37   197   199   ar
    38   197   195   ar
    39    51    53   ar
    40    30    28    1
    41    66    65    1
    42    66    71   am
    43   116   115    2
    44    34    33    1
    45   136   135   ar
    46   136   138   ar
    47    76    77    1
    48    76    75    1
    49   199   198   ar
    50   140   138   ar
    51   194   195   ar
    52   194   192   ar
    53   115   114    1
    54   195   193   ar
    55    85    83    1
    56    72    71    1
    57    72    75    1
    58    72    73    1
    59    28    29    1
    60    28    25    1
    61   141   142    1
    62    29    31    1
    63    33    32    1
    64    33    36    1
    65    79    73   am
    66    79    80    1
    67    27    26    2
    68   192   191   ar
    69   198   196   ar
    70    73    74    2
    71    83    80    1
    72    83    84    1
    73    32    26   am
    74    26    25    1
    75   193   196   ar
    76   193   191   ar
    77   114   113    1
    78   114   117    1
    79    36    37    1
    80    82    81    2
    81    25    24    1
    82    86    84    1
    83    80    81    1
    84   142   145    1
    85   142   143    1
    86   191   190    1
    87   117   118    1
    88    81    87   am
    89   152   151    1
    90   152   146    1
    91   151   150    1
    92    24    17   am
    93   143   146   am
    94   143   144    2
    95    37    38   ar
    96    37    39   ar
    97   146   147    1
    98    12    10   ar
    99    12    14   ar
   100     9    10   ar
   101     9     7   ar
   102   118   120   ar
   103   118   119   ar
   104   190   187    1
   105   123   120   ar
   106   123   125   ar
   107    38    40   ar
   108    87    88    1
   109   150   147    1
   110    10     8   ar
   111    95    96    1
   112    95    92    1
   113    14    13   ar
   114   176   175    1
   115    17    18    2
   116    17    16    1
   117   188   187    1
   118   188   189    2
   119   120   122   ar
   120     7     6   ar
   121   147   148    1
   122    39    42   ar
   123    39    41   ar
   124     1     2    1
   125   187   186    1
   126    42    44   ar
   127    88    89    1
   128    91    92    1
   129    91    89   am
   130   125   126   ar
   131    92    93    1
   132    89    90    2
   133   119   121   ar
   134     8     6   ar
   135     8    11   ar
   136    13    11   ar
   137     6     5    1
   138   175   174    1
   139    40    41   ar
   140    16    15    1
   141    16    19    1
   142    41    43   ar
   143   180   179    2
   144    44    45   ar
   145   148   149    2
   146   148   153   am
   147   122   121   ar
   148   122   124   ar
   149   107   108    2
   150   107   106    1
   151     2     5    1
   152     2     3    1
   153   186   179   am
   154   126   124   ar
   155    19    20    1
   156    93    97   am
   157    93    94    2
   158   179   178    1
   159   174   173    1
   160    97    98    1
   161   105   106    1
   162     3     4    2
   163   159   153    1
   164   159   158    1
   165    43    45   ar
   166   153   154    1
   167   106   109    1
   168    20    21    1
   169   173   170    1
   170   104   102   ar
   171   178   177    1
   172   178   181    1
   173    98   101    1
   174    98    99    1
   175   172   171    2
   176   156   155    2
   177    21    23   am
   178    21    22    2
   179   154   155    1
   180   154   157    1
   181   177   171   am
   182   158   157    1
   183   109   110    1
   184   171   170    1
   185   101   102    1
   186    99   100    2
   187   181   182    1
   188   102   103   ar
   189   155   160   am
   190   170   169    1
   191   110   111   ar
   192   110   112   ar
   193   160   161    1
   194   182   183    1
   195   161   162    1
   196   161   164    1
   197   165   164    1
   198   165   166    1
   199   183   185   am
   200   183   184    2
   201   162   163    2
   202   166   167   ar
   203   166   168   ar
