@<TRIPOS>MOLECULE
tmp/2k1qA00.pdb
 145 139 0 0 0
SMALL
GASTEIGER

@<TRIPOS>ATOM
      1  N          6.8710    4.8210    5.1070 N.3    20  GLN20      -0.1231
      2  CA         7.3930    5.1150    3.7350 C.3    20  GLN20       0.1698
      3  C          6.3040    5.7340    2.8490 C.2    20  GLN20       0.2593
      4  O          5.1400    5.7610    3.2040 O.2    20  GLN20      -0.2718
      5  CB         7.8330    3.7540    3.1800 C.3    20  GLN20       0.0381
      6  CG         6.6380    2.7960    3.1260 C.3    20  GLN20       0.0905
      7  CD         7.1070    1.3720    3.4310 C.2    20  GLN20       0.2608
      8  OE1        8.2460    1.0280    3.1810 O.2    20  GLN20      -0.2717
      9  NE2        6.2710    0.5240    3.9650 N.am   20  GLN20      -0.0878
     10  N          6.6820    6.2200    1.6930 N.am   21  SER21      -0.1938
     11  CA         5.6870    6.8340    0.7630 C.3    21  SER21       0.2055
     12  C          5.6720    6.0650   -0.5620 C.2    21  SER21       0.2643
     13  O          6.6810    5.5470   -0.9970 O.2    21  SER21      -0.2714
     14  CB         6.1750    8.2650    0.5480 C.3    21  SER21       0.2130
     15  OG         6.2580    8.9270    1.8020 O.3    21  SER21      -0.2179
     16  N          4.5340    5.9850   -1.2030 N.am   22  PHE22      -0.1973
     17  CA         4.4450    5.2430   -2.5020 C.3    22  PHE22       0.1639
     18  C          3.2590    5.7520   -3.3230 C.2    22  PHE22       0.2290
     19  O          2.5720    6.6740   -2.9280 O.2    22  PHE22      -0.2864
     20  CB         4.2870    3.7490   -2.1530 C.3    22  PHE22       0.0560
     21  CG         3.2750    3.5470   -1.0450 C.ar   22  PHE22      -0.0200
     22  CD1        3.6740    3.6770    0.2900 C.ar   22  PHE22      -0.0042
     23  CD2        1.9490    3.2230   -1.3510 C.ar   22  PHE22      -0.0042
     24  CE1        2.7510    3.4840    1.3210 C.ar   22  PHE22      -0.0003
     25  CE2        1.0230    3.0290   -0.3180 C.ar   22  PHE22      -0.0003
     26  CZ         1.4240    3.1600    1.0170 C.ar   22  PHE22      -0.0000
     27  N          0.3360   -2.1110   -2.9210 N.3    34  VAL34      -0.1245
     28  CA         0.8810   -3.3490   -2.2890 C.3    34  VAL34       0.1561
     29  C          0.6480   -3.3110   -0.7700 C.2    34  VAL34       0.2260
     30  O          0.4400   -2.2610   -0.1920 O.2    34  VAL34      -0.2867
     31  CB         2.3720   -3.3670   -2.6430 C.3    34  VAL34       0.0252
     32  CG1        3.1120   -2.2170   -1.9430 C.3    34  VAL34       0.0019
     33  CG2        2.9600   -4.7080   -2.2090 C.3    34  VAL34       0.0019
     34  N          2.8220   -4.4200    1.7490 N.3    36  HIS36      -0.1226
     35  CA         4.0300   -4.0070    2.5330 C.3    36  HIS36       0.1752
     36  C          4.2050   -2.4810    2.4910 C.2    36  HIS36       0.2596
     37  O          4.7990   -1.8960    3.3780 O.2    36  HIS36      -0.2718
     38  CB         5.2210   -4.7470    1.8950 C.3    36  HIS36       0.0759
     39  CG         5.5320   -4.2110    0.5200 C.ar   36  HIS36       0.0818
     40  ND1        5.5060   -5.0150   -0.6100 N.ar   36  HIS36      -0.2268
     41  CD2        5.9090   -2.9650    0.0830 C.ar   36  HIS36       0.1154
     42  CE1        5.8620   -4.2500   -1.6580 C.ar   36  HIS36       0.1986
     43  NE2        6.1180   -2.9920   -1.2910 N.ar   36  HIS36      -0.2212
     44  N          3.6770   -1.8360    1.4800 N.am   37  GLY37      -0.1957
     45  CA         3.7940   -0.3520    1.3910 C.3    37  GLY37       0.1869
     46  C          2.6760    0.2830    2.2180 C.2    37  GLY37       0.2309
     47  O          2.9220    1.0560    3.1240 O.2    37  GLY37      -0.2863
     48  N         -0.5840   -9.7490   -0.6250 N.3    60  ASP60      -0.1239
     49  CA         0.1970   -8.4780   -0.4520 C.3    60  ASP60       0.1674
     50  C         -0.4540   -7.3350   -1.2430 C.2    60  ASP60       0.2266
     51  O          0.2140   -6.5990   -1.9460 O.2    60  ASP60      -0.2867
     52  CB         1.6000   -8.7800   -0.9930 C.3    60  ASP60       0.1410
     53  CG         2.6220   -7.8590   -0.3230 C.2    60  ASP60       0.3668
     54  OD1        2.6950   -7.8730    0.8950 O.co2  60  ASP60      -0.2456
     55  OD2        3.3200   -7.1550   -1.0370 O.co2  60  ASP60      -0.2456
     56  N          7.4550    7.9770   -8.7030 N.3    88  ARG88      -0.1245
     57  CA         7.0940    9.1690   -7.8720 C.3    88  ARG88       0.1563
     58  C          7.8840   10.4060   -8.3230 C.2    88  ARG88       0.2260
     59  O          7.4980   11.5270   -8.0470 O.2    88  ARG88      -0.2867
     60  CB         7.4530    8.7850   -6.4310 C.3    88  ARG88       0.0307
     61  CG         8.9570    8.5020   -6.3140 C.3    88  ARG88       0.0489
     62  CD         9.2910    8.1050   -4.8750 C.3    88  ARG88       0.2205
     63  NE        10.7600    7.8560   -4.8780 N.pl3  88  ARG88      -0.0865
     64  CZ        11.5580    8.6550   -4.2230 C.cat  88  ARG88       0.5346
     65  NH1       11.9320    9.7850   -4.7590 N.pl3  88  ARG88       0.1354
     66  NH2       11.9820    8.3240   -3.0340 N.pl3  88  ARG88       0.1354
     67  N         18.6820    0.1330   -7.2710 N.3   111  VAL111     -0.1245
     68  CA        17.4010   -0.1880   -6.5640 C.3   111  VAL111      0.1561
     69  C         16.8100    1.0760   -5.9290 C.2   111  VAL111      0.2260
     70  O         15.6080    1.2240   -5.8290 O.2   111  VAL111     -0.2867
     71  CB        17.7710   -1.2170   -5.4870 C.3   111  VAL111      0.0252
     72  CG1       18.3450   -2.4690   -6.1540 C.3   111  VAL111      0.0019
     73  CG2       18.8160   -0.6280   -4.5320 C.3   111  VAL111      0.0019
     74  N         14.2650    2.8810   -8.1100 N.3   114  LEU114     -0.1231
     75  CA        12.9060    2.2590   -8.1730 C.3   114  LEU114      0.1693
     76  C         12.1990    2.3350   -6.8110 C.2   114  LEU114      0.2592
     77  O         10.9930    2.1960   -6.7320 O.2   114  LEU114     -0.2718
     78  CB        13.1530    0.8000   -8.5770 C.3   114  LEU114      0.0284
     79  CG        12.7310    0.5840  -10.0370 C.3   114  LEU114      0.0019
     80  CD1       13.5840    1.4590  -10.9580 C.3   114  LEU114      0.0001
     81  CD2       12.9300   -0.8840  -10.4140 C.3   114  LEU114      0.0001
     82  N         12.9290    2.5540   -5.7430 N.am  115  LYS115     -0.1966
     83  CA        12.2780    2.6370   -4.3960 C.3   115  LYS115      0.1728
     84  C         11.2630    3.7850   -4.3710 C.2   115  LYS115      0.2616
     85  O         11.4980    4.8450   -4.9190 O.2   115  LYS115     -0.2715
     86  CB        13.4150    2.9050   -3.4070 C.3   115  LYS115      0.0311
     87  CG        14.1390    1.5930   -3.0960 C.3   115  LYS115      0.0038
     88  CD        13.2760    0.7340   -2.1640 C.3   115  LYS115      0.0206
     89  CE        13.7760    0.8740   -0.7230 C.3   115  LYS115      0.1093
     90  NZ        15.0370    0.0830   -0.6740 N.3   115  LYS115     -0.1314
     91  N         10.1350    3.5730   -3.7430 N.am  116  GLY116     -0.1955
     92  CA         9.0920    4.6400   -3.6790 C.3   116  GLY116      0.1869
     93  C          8.1900    4.5780   -4.9220 C.2   116  GLY116      0.2309
     94  O          7.4350    5.4940   -5.1890 O.2   116  GLY116     -0.2863
     95  N          6.5340    1.4130   -5.7330 N.3   118  SER118     -0.1217
     96  CA         5.5870    0.2660   -5.5600 C.3   118  SER118      0.1889
     97  C          4.1580    0.7930   -5.4280 C.2   118  SER118      0.2288
     98  O          3.9160    1.7970   -4.7840 O.2   118  SER118     -0.2866
     99  CB         6.0240   -0.4350   -4.2750 C.3   118  SER118      0.2089
    100  OG         5.3910   -1.7050   -4.1950 O.3   118  SER118     -0.2183
    101  N          3.2380   -2.1530   -9.8090 N.3   133  PHE133     -0.1227
    102  CA         4.6010   -2.6260   -9.4050 C.3   133  PHE133      0.1736
    103  C          4.5710   -3.1380   -7.9590 C.2   133  PHE133      0.2595
    104  O          3.9760   -2.5280   -7.0890 O.2   133  PHE133     -0.2718
    105  CB         5.5050   -1.3920   -9.5340 C.3   133  PHE133      0.0547
    106  CG         6.9190   -1.7270   -9.1050 C.ar  133  PHE133     -0.0202
    107  CD1        7.5640   -2.8600   -9.6190 C.ar  133  PHE133     -0.0042
    108  CD2        7.5840   -0.9010   -8.1910 C.ar  133  PHE133     -0.0042
    109  CE1        8.8720   -3.1630   -9.2190 C.ar  133  PHE133     -0.0003
    110  CE2        8.8900   -1.2040   -7.7910 C.ar  133  PHE133     -0.0003
    111  CZ         9.5340   -2.3360   -8.3060 C.ar  133  PHE133     -0.0000
    112  N          5.2100   -4.2520   -7.7010 N.am  134  ARG134     -0.1966
    113  CA         5.2240   -4.8110   -6.3150 C.3   134  ARG134      0.1729
    114  C          6.6460   -4.7960   -5.7470 C.2   134  ARG134      0.2616
    115  O          6.8850   -4.2920   -4.6670 O.2   134  ARG134     -0.2715
    116  CB         4.7230   -6.2480   -6.4660 C.3   134  ARG134      0.0348
    117  CG         4.2290   -6.7650   -5.1140 C.3   134  ARG134      0.0492
    118  CD         5.4140   -7.3080   -4.3110 C.3   134  ARG134      0.2205
    119  NE         4.8020   -7.9640   -3.1220 N.pl3 134  ARG134     -0.0865
    120  CZ         5.3240   -9.0590   -2.6410 C.cat 134  ARG134      0.5346
    121  NH1        5.3150  -10.1530   -3.3510 N.pl3 134  ARG134      0.1354
    122  NH2        5.8540   -9.0590   -1.4490 N.pl3 134  ARG134      0.1354
    123  N          7.5900   -5.3470   -6.4680 N.am  135  ALA135     -0.1963
    124  CA         8.9990   -5.3700   -5.9740 C.3   135  ALA135      0.1728
    125  C          9.9760   -5.4360   -7.1510 C.2   135  ALA135      0.2616
    126  O          9.6150   -5.8190   -8.2480 O.2   135  ALA135     -0.2715
    127  CB         9.0990   -6.6370   -5.1240 C.3   135  ALA135      0.0334
    128  N         11.2100   -5.0650   -6.9250 N.am  136  ALA136     -0.1963
    129  CA        12.2250   -5.1020   -8.0210 C.3   136  ALA136      0.1728
    130  C         13.2420   -6.2120   -7.7610 C.2   136  ALA136      0.2616
    131  O         13.5120   -6.5640   -6.6290 O.2   136  ALA136     -0.2715
    132  CB        12.9020   -3.7320   -7.9800 C.3   136  ALA136      0.0334
    133  N         13.8070   -6.7630   -8.8050 N.am  137  VAL137     -0.1963
    134  CA        14.8110   -7.8520   -8.6290 C.3   137  VAL137      0.1727
    135  C         16.2080   -7.3250   -8.9660 C.2   137  VAL137      0.2616
    136  O         16.4690   -6.8910  -10.0720 O.2   137  VAL137     -0.2715
    137  CB        14.3920   -8.9480   -9.6150 C.3   137  VAL137      0.0290
    138  CG1       15.3620  -10.1290   -9.5190 C.3   137  VAL137      0.0023
    139  CG2       12.9780   -9.4300   -9.2760 C.3   137  VAL137      0.0023
    140  N         17.1030   -7.3620   -8.0140 N.am  138  CYS138     -0.1968
    141  CA        18.4910   -6.8650   -8.2610 C.3   138  CYS138      0.1712
    142  C         19.5180   -7.8610   -7.7110 C.2   138  CYS138      0.2296
    143  O         19.2130   -8.6720   -6.8580 O.2   138  CYS138     -0.2864
    144  CB        18.5800   -5.5200   -7.5230 C.3   138  CYS138      0.0983
    145  SG        18.2420   -5.7450   -5.7530 S.3   138  CYS138     -0.0798
@<TRIPOS>BOND
     1    80    79    1
     2    81    79    1
     3   136   135    2
     4    79    78    1
     5   101   102    1
     6   107   109   ar
     7   107   106   ar
     8   137   138    1
     9   137   139    1
    10   137   134    1
    11   105   102    1
    12   105   106    1
    13   102   103    1
    14   109   111   ar
    15   106   108   ar
    16   135   134    1
    17   135   140   am
    18   133   134    1
    19   133   130   am
    20    56    57    1
    21    78    75    1
    22    58    59    2
    23    58    57    1
    24   111   110   ar
    25   141   140    1
    26   141   142    1
    27   141   144    1
    28   126   125    2
    29   108   110   ar
    30    75    74    1
    31    75    76    1
    32   129   132    1
    33   129   130    1
    34   129   128    1
    35   103   112   am
    36   103   104    2
    37    57    60    1
    38   130   131    2
    39   142   143    2
    40   112   113    1
    41   144   145    1
    42    67    68    1
    43   125   128   am
    44   125   124    1
    45    76    77    2
    46    76    82   am
    47    68    69    1
    48    68    71    1
    49   123   124    1
    50   123   114   am
    51   116   113    1
    52   116   117    1
    53    60    61    1
    54   113   114    1
    55    61    62    1
    56    72    71    1
    57   124   127    1
    58    69    70    2
    59   114   115    2
    60    82    83    1
    61    95    96    1
    62    96    97    1
    63    96    99    1
    64    71    73    1
    65    97    98    2
    66    94    93    2
    67   117   118    1
    68    93    92    1
    69    85    84    2
    70    63    62    1
    71    63    64    2
    72    65    64    1
    73    83    84    1
    74    83    86    1
    75    84    91   am
    76   118   119    1
    77    99   100    1
    78    64    66    1
    79    91    92    1
    80    86    87    1
    81   121   120    1
    82    18    19    2
    83    18    17    1
    84   119   120    2
    85    87    88    1
    86    27    28    1
    87    31    28    1
    88    31    33    1
    89    31    32    1
    90   120   122    1
    91    17    20    1
    92    17    16    1
    93    28    29    1
    94    88    89    1
    95    20    21    1
    96    51    50    2
    97    42    43   ar
    98    42    40   ar
    99    23    21   ar
   100    23    25   ar
   101    43    41   ar
   102    50    49    1
   103    16    12   am
   104    21    22   ar
   105    55    53   ar
   106    13    12    2
   107    52    49    1
   108    52    53    1
   109    29    30    2
   110    89    90    1
   111    48    49    1
   112    40    39   ar
   113    12    11    1
   114    53    54   ar
   115    25    26   ar
   116    41    39   ar
   117    22    24   ar
   118    39    38    1
   119    14    11    1
   120    14    15    1
   121    11    10    1
   122    26    24   ar
   123    45    44    1
   124    45    46    1
   125    44    36   am
   126    10     3   am
   127    34    35    1
   128    38    35    1
   129    46    47    2
   130    36    35    1
   131    36    37    2
   132     3     4    2
   133     3     2    1
   134     6     5    1
   135     6     7    1
   136     5     2    1
   137     8     7    2
   138     7     9   am
   139     2     1    1
