@<TRIPOS>MOLECULE
tmp/2k20A00.pdb
 184 176 0 0 0
SMALL
GASTEIGER

@<TRIPOS>ATOM
      1  N         12.5110   14.8930    6.7260 N.3    18  ALA18      -0.1231
      2  CA        11.8140   13.7050    7.1990 C.3    18  ALA18       0.1694
      3  C         11.8450   12.5880    6.1560 C.2    18  ALA18       0.2593
      4  O         11.3190   11.5000    6.3870 O.2    18  ALA18      -0.2718
      5  CB        10.3710   14.0490    7.5570 C.3    18  ALA18       0.0304
      6  N         12.4480   12.8660    5.0000 N.am   19  GLY19      -0.1942
      7  CA        12.5160   11.8750    3.9430 C.3    19  GLY19       0.2014
      8  C         11.3010   11.9330    3.0380 C.2    19  GLY19       0.2639
      9  O         11.4250   11.9630    1.8140 O.2    19  GLY19      -0.2714
     10  N         10.1230   11.9600    3.6510 N.am   20  LEU20      -0.1963
     11  CA         8.8670   12.0300    2.9140 C.3    20  LEU20       0.1728
     12  C          7.6830   12.0540    3.8750 C.2    20  LEU20       0.2617
     13  O          6.6670   12.6890    3.6000 O.2    20  LEU20      -0.2715
     14  CB         8.7350   10.8590    1.9420 C.3    20  LEU20       0.0311
     15  CG         7.9980   11.1880    0.6400 C.3    20  LEU20       0.0022
     16  CD1        8.6080   12.4140   -0.0260 C.3    20  LEU20       0.0001
     17  CD2        8.0250    9.9970   -0.3050 C.3    20  LEU20       0.0001
     18  N          7.8230   11.3740    5.0080 N.am   21  GLY21      -0.1940
     19  CA         6.7560   11.3540    5.9900 C.3    21  GLY21       0.2014
     20  C          6.0200   10.0310    6.0540 C.2    21  GLY21       0.2639
     21  O          4.7910   10.0070    6.0860 O.2    21  GLY21      -0.2714
     22  N          6.7630    8.9270    6.0870 N.am   22  VAL22      -0.1963
     23  CA         6.1440    7.6070    6.1600 C.3    22  VAL22       0.1727
     24  C          7.1010    6.5630    6.7190 C.2    22  VAL22       0.2617
     25  O          8.3170    6.6840    6.5890 O.2    22  VAL22      -0.2715
     26  CB         5.6540    7.1230    4.7790 C.3    22  VAL22       0.0290
     27  CG1        4.6430    8.0910    4.1950 C.3    22  VAL22       0.0023
     28  CG2        6.8260    6.9300    3.8250 C.3    22  VAL22       0.0023
     29  N          6.5320    5.5230    7.3120 N.am   23  SER23      -0.1936
     30  CA         7.3140    4.4290    7.8650 C.3    23  SER23       0.2055
     31  C          7.1230    3.1950    6.9950 C.2    23  SER23       0.2643
     32  O          5.9950    2.7470    6.7870 O.2    23  SER23      -0.2714
     33  CB         6.8940    4.1410    9.3090 C.3    23  SER23       0.2130
     34  OG         6.1070    5.1970    9.8330 O.3    23  SER23      -0.2179
     35  N          8.2190    2.6660    6.4610 N.am   24  VAL24      -0.1963
     36  CA         8.1470    1.5030    5.5820 C.3    24  VAL24       0.1727
     37  C          8.6320    0.2300    6.2610 C.2    24  VAL24       0.2616
     38  O          9.5250    0.2600    7.1090 O.2    24  VAL24      -0.2715
     39  CB         8.9730    1.7250    4.3010 C.3    24  VAL24       0.0290
     40  CG1        8.2220    2.6210    3.3270 C.3    24  VAL24       0.0023
     41  CG2       10.3360    2.3130    4.6340 C.3    24  VAL24       0.0023
     42  N          8.0350   -0.8910    5.8680 N.am   25  LYS25      -0.1963
     43  CA         8.3910   -2.1940    6.4130 C.3    25  LYS25       0.1728
     44  C          8.0330   -3.2940    5.4170 C.2    25  LYS25       0.2617
     45  O          6.9110   -3.3460    4.9150 O.2    25  LYS25      -0.2715
     46  CB         7.6660   -2.4220    7.7440 C.3    25  LYS25       0.0311
     47  CG         7.7900   -3.8410    8.2860 C.3    25  LYS25       0.0038
     48  CD         6.4580   -4.3590    8.8100 C.3    25  LYS25       0.0206
     49  CE         6.1150   -5.7190    8.2270 C.3    25  LYS25       0.1093
     50  NZ         5.5290   -6.6310    9.2480 N.3    25  LYS25      -0.1314
     51  N          8.9930   -4.1670    5.1310 N.am   26  GLY26      -0.1940
     52  CA         8.7530   -5.2460    4.1900 C.3    26  GLY26       0.2014
     53  C          8.6470   -6.5990    4.8610 C.2    26  GLY26       0.2639
     54  O          8.9980   -6.7520    6.0300 O.2    26  GLY26      -0.2714
     55  N          8.1580   -7.5830    4.1150 N.am   27  ASN27      -0.1958
     56  CA         8.0000   -8.9350    4.6370 C.3    27  ASN27       0.1819
     57  C          8.9450   -9.9030    3.9360 C.2    27  ASN27       0.2621
     58  O          9.7250   -9.5100    3.0690 O.2    27  ASN27      -0.2715
     59  CB         6.5560   -9.4080    4.4700 C.3    27  ASN27       0.1195
     60  CG         5.6710   -8.9880    5.6270 C.2    27  ASN27       0.2630
     61  OD1        4.9980   -9.8160    6.2400 O.2    27  ASN27      -0.2716
     62  ND2        5.6680   -7.6960    5.9320 N.am   27  ASN27      -0.0877
     63  N          8.8620  -11.1700    4.3170 N.am   28  ARG28      -0.1963
     64  CA         9.7010  -12.2050    3.7310 C.3    28  ARG28       0.1729
     65  C          8.9300  -13.5170    3.6340 C.2    28  ARG28       0.2617
     66  O          8.2400  -13.9090    4.5730 O.2    28  ARG28      -0.2715
     67  CB        10.9630  -12.4020    4.5740 C.3    28  ARG28       0.0348
     68  CG        12.1940  -12.7610    3.7570 C.3    28  ARG28       0.0492
     69  CD        13.3420  -11.7970    4.0170 C.3    28  ARG28       0.2205
     70  NE        14.6170  -12.4950    4.1710 N.pl3  28  ARG28      -0.0865
     71  CZ        14.9210  -13.2620    5.2160 C.cat  28  ARG28       0.5346
     72  NH1       14.0460  -13.4340    6.1980 N.pl3  28  ARG28       0.1354
     73  NH2       16.1030  -13.8590    5.2790 N.pl3  28  ARG28       0.1354
     74  N          9.0470  -14.1920    2.4930 N.am   29  SER29      -0.1936
     75  CA         8.3500  -15.4590    2.2850 C.3    29  SER29       0.2055
     76  C          8.5550  -16.3950    3.4740 C.2    29  SER29       0.2642
     77  O          9.6250  -16.4190    4.0800 O.2    29  SER29      -0.2714
     78  CB         8.8330  -16.1300    0.9960 C.3    29  SER29       0.2130
     79  OG         9.0470  -15.1730   -0.0270 O.3    29  SER29      -0.2179
     80  N          7.5180  -17.1540    3.8100 N.am   30  LYS30      -0.1977
     81  CA         7.5810  -18.0790    4.9360 C.3    30  LYS30       0.1596
     82  C          8.5700  -19.2110    4.6760 C.2    30  LYS30       0.2287
     83  O          9.4150  -19.5160    5.5180 O.2    30  LYS30      -0.2864
     84  CB         6.1950  -18.6570    5.2260 C.3    30  LYS30       0.0298
     85  CG         6.0840  -19.3070    6.5960 C.3    30  LYS30       0.0038
     86  CD         5.4820  -20.7000    6.5070 C.3    30  LYS30       0.0206
     87  CE         3.9640  -20.6560    6.5560 C.3    30  LYS30       0.1093
     88  NZ         3.3840  -20.0750    5.3150 N.3    30  LYS30      -0.1314
     89  N         11.6620  -17.5790    2.1820 N.3    33  HIS33      -0.1241
     90  CA        12.4310  -16.6090    2.9560 C.3    33  HIS33       0.1621
     91  C         12.8960  -15.4510    2.0740 C.2    33  HIS33       0.2264
     92  O         13.8520  -14.7500    2.4060 O.2    33  HIS33      -0.2867
     93  CB        13.6380  -17.2850    3.6100 C.3    33  HIS33       0.0745
     94  CG        13.3440  -17.8620    4.9590 C.ar   33  HIS33       0.0817
     95  ND1       12.4790  -17.2740    5.8600 N.ar   33  HIS33      -0.2268
     96  CD2       13.8060  -18.9830    5.5610 C.ar   33  HIS33       0.1154
     97  CE1       12.4240  -18.0090    6.9570 C.ar   33  HIS33       0.1986
     98  NE2       13.2190  -19.0510    6.8010 N.ar   33  HIS33      -0.2212
     99  N          9.3340   -9.9990    0.4460 N.3    36  LEU36      -0.1245
    100  CA         8.0330   -9.8410   -0.1950 C.3    36  LEU36       0.1561
    101  C          7.7430   -8.3700   -0.4930 C.2    36  LEU36       0.2260
    102  O          6.5940   -7.9910   -0.7200 O.2    36  LEU36      -0.2867
    103  CB         6.9310  -10.4230    0.6930 C.3    36  LEU36       0.0270
    104  CG         7.0980  -11.9000    1.0610 C.3    36  LEU36       0.0019
    105  CD1        5.8480  -12.4190    1.7540 C.3    36  LEU36       0.0001
    106  CD2        7.4050  -12.7300   -0.1770 C.3    36  LEU36       0.0001
    107  N          4.0480    1.1600    6.5140 N.3    41  LYS41      -0.1245
    108  CA         3.7550    0.7980    7.8950 C.3    41  LYS41       0.1561
    109  C          2.9210    1.8770    8.5700 C.2    41  LYS41       0.2260
    110  O          1.9680    1.5790    9.2920 O.2    41  LYS41      -0.2867
    111  CB         5.0530    0.5760    8.6740 C.3    41  LYS41       0.0271
    112  CG         4.8320    0.1030   10.1020 C.3    41  LYS41       0.0035
    113  CD         4.4770   -1.3740   10.1500 C.3    41  LYS41       0.0206
    114  CE         3.8480   -1.7510   11.4810 C.3    41  LYS41       0.1093
    115  NZ         3.4110   -3.1750   11.5040 N.3    41  LYS41      -0.1314
    116  N          3.3100    9.4290    8.1350 N.3    44  ILE44      -0.1245
    117  CA         3.3580   10.5680    9.0410 C.3    44  ILE44       0.1561
    118  C          2.2900   11.5900    8.6660 C.2    44  ILE44       0.2260
    119  O          2.4180   12.2870    7.6600 O.2    44  ILE44      -0.2867
    120  CB         4.7470   11.2440    9.0230 C.3    44  ILE44       0.0252
    121  CG1        5.7550   10.4010    9.8020 C.3    44  ILE44       0.0019
    122  CG2        4.6810   12.6510    9.6110 C.3    44  ILE44       0.0019
    123  CD1        6.6870    9.5910    8.9290 C.3    44  ILE44       0.0001
    124  N         13.9080   -5.9880    0.8350 N.3    74  ASN74      -0.1225
    125  CA        13.0760   -4.9470    1.4300 C.3    74  ASN74       0.1785
    126  C         13.9320   -3.8070    1.9570 C.2    74  ASN74       0.2597
    127  O         13.7640   -2.6580    1.5590 O.2    74  ASN74      -0.2718
    128  CB        12.2270   -5.5180    2.5670 C.3    74  ASN74       0.1169
    129  CG        11.5240   -6.8000    2.1790 C.2    74  ASN74       0.2627
    130  OD1       10.5280   -6.7820    1.4560 O.2    74  ASN74      -0.2716
    131  ND2       12.0420   -7.9230    2.6590 N.am   74  ASN74      -0.0877
    132  N         14.8530   -4.1340    2.8580 N.am   75  GLN75      -0.1979
    133  CA        15.7400   -3.1340    3.4450 C.3    75  GLN75       0.1601
    134  C         16.4800   -2.3580    2.3610 C.2    75  GLN75       0.2287
    135  O         16.6720   -1.1450    2.4690 O.2    75  GLN75      -0.2864
    136  CB        16.7430   -3.7970    4.3910 C.3    75  GLN75       0.0394
    137  CG        17.3940   -5.0450    3.8200 C.3    75  GLN75       0.0908
    138  CD        18.7180   -4.7560    3.1450 C.2    75  GLN75       0.2608
    139  OE1       19.6500   -4.2490    3.7680 O.2    75  GLN75      -0.2717
    140  NE2       18.8060   -5.0800    1.8610 N.am   75  GLN75      -0.0878
    141  N         13.7120   -0.1100    0.6050 N.3    78  MET78      -0.1230
    142  CA        13.3670    1.0430    1.4250 C.3    78  MET78       0.1702
    143  C         14.5360    2.0170    1.4630 C.2    78  MET78       0.2592
    144  O         14.3490    3.2260    1.5850 O.2    78  MET78      -0.2718
    145  CB        12.9860    0.6150    2.8390 C.3    78  MET78       0.0401
    146  CG        14.0500   -0.2070    3.5420 C.3    78  MET78       0.0596
    147  SD        13.5580   -0.7000    5.2050 S.3    78  MET78      -0.1393
    148  CE        11.8220   -1.0640    4.9480 C.3    78  MET78       0.0692
    149  N         15.7470    1.4810    1.3300 N.am   79  GLU79      -0.1979
    150  CA        16.9450    2.3050    1.3180 C.3    79  GLU79       0.1602
    151  C         17.1110    2.9320   -0.0640 C.2    79  GLU79       0.2287
    152  O         17.6170    4.0450   -0.2020 O.2    79  GLU79      -0.2864
    153  CB        18.1770    1.4620    1.6750 C.3    79  GLU79       0.0415
    154  CG        19.5000    2.0810    1.2470 C.3    79  GLU79       0.1163
    155  CD        20.5480    2.0340    2.3410 C.2    79  GLU79       0.3649
    156  OE1       20.1780    2.1760    3.5250 O.co2  79  GLU79      -0.2457
    157  OE2       21.7400    1.8530    2.0140 O.co2  79  GLU79      -0.2457
    158  N         14.6090    3.7480   -2.0310 N.3    81  LEU81      -0.1231
    159  CA        13.6160    4.8050   -2.1500 C.3    81  LEU81       0.1693
    160  C         14.0330    5.9800   -1.2830 C.2    81  LEU81       0.2591
    161  O         13.8120    7.1370   -1.6310 O.2    81  LEU81      -0.2718
    162  CB        12.2230    4.3060   -1.7520 C.3    81  LEU81       0.0284
    163  CG        12.0990    3.7610   -0.3290 C.3    81  LEU81       0.0019
    164  CD1       12.0570    4.9000    0.6820 C.3    81  LEU81       0.0001
    165  CD2       10.8590    2.8900   -0.2040 C.3    81  LEU81       0.0001
    166  N         14.6580    5.6550   -0.1570 N.am   82  ARG82      -0.1980
    167  CA        15.1450    6.6540    0.7790 C.3    82  ARG82       0.1597
    168  C         16.1100    7.6060    0.0830 C.2    82  ARG82       0.2287
    169  O         15.9730    8.8250    0.1700 O.2    82  ARG82      -0.2864
    170  CB        15.8470    5.9580    1.9440 C.3    82  ARG82       0.0334
    171  CG        15.2960    6.3370    3.3050 C.3    82  ARG82       0.0492
    172  CD        16.2730    5.9950    4.4190 C.3    82  ARG82       0.2205
    173  NE        16.3760    7.0650    5.4080 N.pl3  82  ARG82      -0.0865
    174  CZ        16.8650    6.8970    6.6340 C.cat  82  ARG82       0.5346
    175  NH1       17.2910    5.7020    7.0280 N.pl3  82  ARG82       0.1354
    176  NH2       16.9250    7.9230    7.4710 N.pl3  82  ARG82       0.1354
    177  N         14.4080    9.3260   -2.8450 N.3    85  MET85      -0.1245
    178  CA        13.4800   10.3570   -2.3930 C.3    85  MET85       0.1570
    179  C         14.2140   11.5480   -1.7830 C.2    85  MET85       0.2261
    180  O         13.7130   12.6710   -1.8060 O.2    85  MET85      -0.2867
    181  CB        12.4950    9.7720   -1.3780 C.3    85  MET85       0.0387
    182  CG        13.1020    9.4810   -0.0130 C.3    85  MET85       0.0595
    183  SD        11.8680    8.9970    1.2110 S.3    85  MET85      -0.1393
    184  CE        10.6170    8.2560    0.1630 C.3    85  MET85       0.0692
@<TRIPOS>BOND
     1   177   178    1
     2   178   179    1
     3   178   181    1
     4   159   158    1
     5   159   162    1
     6   159   160    1
     7   180   179    2
     8   162   163    1
     9   161   160    2
    10   181   182    1
    11   160   166   am
    12   102   101    2
    13   101   100    1
    14   163   165    1
    15   163   164    1
    16    17    15    1
    17   152   151    2
    18   100    99    1
    19   100   103    1
    20   106   104    1
    21   166   167    1
    22   151   150    1
    23    79    78    1
    24    16    15    1
    25   182   183    1
    26   168   169    2
    27   168   167    1
    28   184   183    1
    29   141   142    1
    30    15    14    1
    31   103   104    1
    32   167   170    1
    33   124   125    1
    34    78    75    1
    35   104   105    1
    36   154   153    1
    37   154   155    1
    38   150   149    1
    39   150   153    1
    40   149   143   am
    41   142   143    1
    42   142   145    1
    43   125   126    1
    44   125   128    1
    45   130   129    2
    46   143   144    2
    47   127   126    2
    48     9     8    2
    49   140   138   am
    50    14    11    1
    51   170   171    1
    52   126   132   am
    53   157   155   ar
    54    91    92    2
    55    91    90    1
    56   129   128    1
    57   129   131   am
    58    89    90    1
    59    75    74    1
    60    75    76    1
    61   155   156   ar
    62   134   135    2
    63   134   133    1
    64    74    65   am
    65   145   146    1
    66   132   133    1
    67    11    10    1
    68    11    12    1
    69    90    93    1
    70     8    10   am
    71     8     7    1
    72    58    57    2
    73   138   139    2
    74   138   137    1
    75   171   172    1
    76    40    39    1
    77   133   136    1
    78    76    80   am
    79    76    77    2
    80   146   147    1
    81    13    12    2
    82    93    94    1
    83    65    64    1
    84    65    66    2
    85    64    63    1
    86    64    67    1
    87    68    69    1
    88    68    67    1
    89    80    81    1
    90   137   136    1
    91    28    26    1
    92    12    18   am
    93    57    63   am
    94    57    56    1
    95     7     6    1
    96    69    70    1
    97    55    56    1
    98    55    53   am
    99    70    71    2
   100    52    53    1
   101    52    51    1
   102    27    26    1
   103    39    41    1
   104    39    36    1
   105   172   173    1
   106    59    56    1
   107    59    60    1
   108    82    81    1
   109    82    83    2
   110    26    23    1
   111    53    54    2
   112    45    44    2
   113    81    84    1
   114   148   147    1
   115    94    96   ar
   116    94    95   ar
   117     6     3   am
   118    18    19    1
   119    51    44   am
   120    71    73    1
   121    71    72    1
   122    84    85    1
   123    88    87    1
   124   173   174    2
   125    44    43    1
   126    96    98   ar
   127    36    37    1
   128    36    35    1
   129    60    62   am
   130    60    61    2
   131    95    97   ar
   132    42    37   am
   133    42    43    1
   134    19    20    1
   135    20    21    2
   136    20    22   am
   137    22    23    1
   138     3     4    2
   139     3     2    1
   140    23    24    1
   141    37    38    2
   142    43    46    1
   143    35    31   am
   144    86    87    1
   145    86    85    1
   146   107   108    1
   147    25    24    2
   148   174   175    1
   149   174   176    1
   150    24    29   am
   151     1     2    1
   152    32    31    2
   153    98    97   ar
   154    31    30    1
   155     2     5    1
   156    29    30    1
   157   119   118    2
   158    46    47    1
   159    30    33    1
   160   108   109    1
   161   108   111    1
   162   116   117    1
   163    49    48    1
   164    49    50    1
   165    47    48    1
   166   109   110    2
   167   118   117    1
   168   111   112    1
   169   123   121    1
   170   120   117    1
   171   120   122    1
   172   120   121    1
   173    33    34    1
   174   112   113    1
   175   113   114    1
   176   114   115    1
