@<TRIPOS>MOLECULE
tmp/2k2gA00.pdb
 157 157 0 0 0
SMALL
GASTEIGER

@<TRIPOS>ATOM
      1  N         72.6620   16.4770   19.4750 N.3    82  ILE82      -0.1231
      2  CA        72.6220   17.3500   18.3040 C.3    82  ILE82       0.1692
      3  C         71.5950   16.8460   17.2920 C.2    82  ILE82       0.2592
      4  O         71.3250   15.6480   17.2070 O.2    82  ILE82      -0.2718
      5  CB        74.0030   17.4130   17.6520 C.3    82  ILE82       0.0266
      6  CG1       74.9960   18.0420   18.6320 C.3    82  ILE82       0.0019
      7  CG2       73.9320   18.2640   16.3830 C.3    82  ILE82       0.0020
      8  CD1       76.4240   17.8050   18.1350 C.3    82  ILE82       0.0001
      9  N         71.0310   17.7750   16.5190 N.am   83  LEU83      -0.1966
     10  CA        70.0330   17.4330   15.4980 C.3    83  LEU83       0.1728
     11  C         70.5710   17.7380   14.1020 C.2    83  LEU83       0.2616
     12  O         70.0580   17.2300   13.1050 O.2    83  LEU83      -0.2715
     13  CB        68.7480   18.2300   15.7350 C.3    83  LEU83       0.0311
     14  CG        68.3550   18.1560   17.2150 C.3    83  LEU83       0.0022
     15  CD1       67.0530   18.9320   17.4350 C.3    83  LEU83       0.0001
     16  CD2       68.1510   16.6900   17.6240 C.3    83  LEU83       0.0001
     17  N         71.6090   18.5650   14.0400 N.am   84  ALA84      -0.1963
     18  CA        72.2140   18.9290   12.7630 C.3    84  ALA84       0.1728
     19  C         73.5990   19.5240   12.9860 C.2    84  ALA84       0.2616
     20  O         73.9510   19.8860   14.1080 O.2    84  ALA84      -0.2715
     21  CB        71.3300   19.9430   12.0340 C.3    84  ALA84       0.0334
     22  N         74.3890   19.6240   11.9150 N.am   85  HIS85      -0.1959
     23  CA        75.7390   20.1780   12.0180 C.3    85  HIS85       0.1787
     24  C         76.0770   21.0020   10.7740 C.2    85  HIS85       0.2620
     25  O         75.4470   20.8490    9.7270 O.2    85  HIS85      -0.2715
     26  CB        76.7520   19.0340   12.2070 C.3    85  HIS85       0.0785
     27  CG        77.0990   18.3950   10.8870 C.ar   85  HIS85       0.0821
     28  ND1       77.9200   19.0150    9.9620 N.ar   85  HIS85      -0.2267
     29  CD2       76.7550   17.1870   10.3350 C.ar   85  HIS85       0.1154
     30  CE1       78.0430   18.1860    8.9110 C.ar   85  HIS85       0.1986
     31  NE2       77.3530   17.0570    9.0860 N.ar   85  HIS85      -0.2212
     32  N         77.0720   21.8770   10.9000 N.am   86  ALA86      -0.1977
     33  CA        77.4830   22.7230    9.7810 C.3    86  ALA86       0.1597
     34  C         78.9280   23.1820    9.9560 C.2    86  ALA86       0.2287
     35  O         79.2640   23.8480   10.9360 O.2    86  ALA86      -0.2864
     36  CB        76.5660   23.9440    9.6860 C.3    86  ALA86       0.0319
     37  N         60.9770   15.8800   14.4450 N.3   112  THR112     -0.1203
     38  CA        61.8510   17.0210   14.1660 C.3   112  THR112      0.1994
     39  C         61.5710   17.5820   12.7770 C.2   112  THR112      0.2617
     40  O         61.8970   16.9540   11.7690 O.2   112  THR112     -0.2717
     41  CB        63.3140   16.5730   14.2450 C.3   112  THR112      0.1784
     42  OG1       63.5710   16.0340   15.5340 O.3   112  THR112     -0.2211
     43  CG2       64.2320   17.7700   13.9970 C.3   112  THR112      0.0376
     44  N         60.9580   18.7610   12.7230 N.am  113  ASN113     -0.1974
     45  CA        60.6340   19.3840   11.4460 C.3   113  ASN113      0.1688
     46  C         61.8910   19.7960   10.6880 C.2   113  ASN113      0.2292
     47  O         62.7230   20.5520   11.1900 O.2   113  ASN113     -0.2864
     48  CB        59.7490   20.6100   11.6740 C.3   113  ASN113      0.1181
     49  CG        58.6250   20.2720   12.6470 C.2   113  ASN113      0.2629
     50  OD1       58.8310   19.5210   13.6010 O.2   113  ASN113     -0.2716
     51  ND2       57.4400   20.7870   12.4620 N.am  113  ASN113     -0.0877
     52  N         61.2940   23.8730    9.2580 N.3   116  LEU116     -0.1231
     53  CA        61.6530   24.9120   10.2110 C.3   116  LEU116      0.1693
     54  C         63.1640   24.8970   10.4210 C.2   116  LEU116      0.2592
     55  O         63.7960   25.9440   10.5620 O.2   116  LEU116     -0.2718
     56  CB        60.9550   24.6870   11.5610 C.3   116  LEU116      0.0284
     57  CG        59.4970   25.1560   11.4940 C.3   116  LEU116      0.0019
     58  CD1       58.7020   24.2390   10.5700 C.3   116  LEU116      0.0001
     59  CD2       58.8810   25.1080   12.8960 C.3   116  LEU116      0.0001
     60  N         63.7310   23.6920   10.4480 N.am  117  THR117     -0.1953
     61  CA        65.1650   23.5310   10.6490 C.3   117  THR117      0.1897
     62  C         65.9430   24.0490    9.4410 C.2   117  THR117      0.2313
     63  O         67.0480   24.5740    9.5770 O.2   117  THR117     -0.2863
     64  CB        65.4950   22.0540   10.8740 C.3   117  THR117      0.1794
     65  OG1       64.7230   21.5600   11.9590 O.3   117  THR117     -0.2208
     66  CG2       66.9830   21.9040   11.1910 C.3   117  THR117      0.0378
     67  N         66.8030   27.4890    9.6450 N.3   120  HIS120     -0.1226
     68  CA        67.7610   27.6420   10.7340 C.3   120  HIS120      0.1752
     69  C         69.1720   27.3020   10.2650 C.2   120  HIS120      0.2595
     70  O         70.1090   28.0690   10.4870 O.2   120  HIS120     -0.2718
     71  CB        67.3850   26.7470   11.9170 C.3   120  HIS120      0.0759
     72  CG        68.4160   26.9060   13.0010 C.ar  120  HIS120      0.0818
     73  ND1       69.0680   25.8230   13.5670 N.ar  120  HIS120     -0.2268
     74  CD2       68.9310   28.0190   13.6210 C.ar  120  HIS120      0.1154
     75  CE1       69.9320   26.3030   14.4810 C.ar  120  HIS120      0.1986
     76  NE2       69.8870   27.6350   14.5540 N.ar  120  HIS120     -0.2212
     77  N         69.3210   26.1500    9.6220 N.am  121  GLU121     -0.1979
     78  CA        70.6300   25.7270    9.1360 C.3   121  GLU121      0.1602
     79  C         71.2310   26.7890    8.2200 C.2   121  GLU121      0.2287
     80  O         72.3940   27.1600    8.3680 O.2   121  GLU121     -0.2864
     81  CB        70.5080   24.4010    8.3830 C.3   121  GLU121      0.0415
     82  CG        70.2830   23.2650    9.3830 C.3   121  GLU121      0.1163
     83  CD        71.5610   23.0030   10.1740 C.2   121  GLU121      0.3649
     84  OE1       72.5010   22.4910    9.5900 O.co2 121  GLU121     -0.2457
     85  OE2       71.5800   23.3180   11.3530 O.co2 121  GLU121     -0.2457
     86  N         73.3760   29.7850    9.5330 N.3   124  HIS124     -0.1241
     87  CA        74.8190   29.6840    9.7090 C.3   124  HIS124      0.1621
     88  C         75.5320   29.8760    8.3750 C.2   124  HIS124      0.2264
     89  O         76.6360   30.4200    8.3230 O.2   124  HIS124     -0.2867
     90  CB        75.1780   28.3150   10.2950 C.3   124  HIS124      0.0745
     91  CG        74.1860   27.9540   11.3660 C.ar  124  HIS124      0.0817
     92  ND1       73.9170   26.6390   11.7120 N.ar  124  HIS124     -0.2268
     93  CD2       73.3880   28.7260   12.1750 C.ar  124  HIS124      0.1154
     94  CE1       72.9940   26.6580   12.6900 C.ar  124  HIS124      0.1986
     95  NE2       72.6360   27.9040   13.0100 N.ar  124  HIS124     -0.2212
     96  N         74.6270   34.0860   16.4020 N.3   130  HIS130     -0.1241
     97  CA        73.4070   33.8050   17.1590 C.3   130  HIS130      0.1621
     98  C         72.9990   35.0360   17.9660 C.2   130  HIS130      0.2264
     99  O         73.8460   35.8340   18.3690 O.2   130  HIS130     -0.2867
    100  CB        73.6450   32.6280   18.1130 C.3   130  HIS130      0.0745
    101  CG        73.6440   31.3300   17.3480 C.ar  130  HIS130      0.0817
    102  ND1       73.7300   30.1010   17.9860 N.ar  130  HIS130     -0.2268
    103  CD2       73.5670   31.0490   16.0050 C.ar  130  HIS130      0.1154
    104  CE1       73.7020   29.1490   17.0370 C.ar  130  HIS130      0.1986
    105  NE2       73.6040   29.6720   15.8120 N.ar  130  HIS130     -0.2212
    106  N         63.6310   31.9180   14.4050 N.3   137  VAL137     -0.1231
    107  CA        63.4620   30.5310   13.9890 C.3   137  VAL137      0.1692
    108  C         64.5370   29.6470   14.6200 C.2   137  VAL137      0.2592
    109  O         64.4450   28.4200   14.5780 O.2   137  VAL137     -0.2718
    110  CB        63.5240   30.4470   12.4590 C.3   137  VAL137      0.0266
    111  CG1       64.7160   31.2620   11.9520 C.3   137  VAL137      0.0020
    112  CG2       63.6690   28.9860   12.0140 C.3   137  VAL137      0.0020
    113  N         65.5380   30.2740   15.2240 N.am  138  MET138     -0.1965
    114  CA        66.5990   29.5270   15.8840 C.3   138  MET138      0.1736
    115  C         66.0250   28.8080   17.1030 C.2   138  MET138      0.2616
    116  O         66.1770   27.5970   17.2580 O.2   138  MET138     -0.2715
    117  CB        67.7180   30.4870   16.3090 C.3   138  MET138      0.0427
    118  CG        68.7130   29.7750   17.2370 C.3   138  MET138      0.0599
    119  SD        68.0960   29.8280   18.9390 S.3   138  MET138     -0.1393
    120  CE        68.7620   31.4530   19.3720 C.3   138  MET138      0.0692
    121  N         65.3560   29.5740   17.9590 N.am  139  PHE139     -0.1960
    122  CA        64.7370   29.0300   19.1670 C.3   139  PHE139      0.1756
    123  C         64.1030   27.6590   18.8760 C.2   139  PHE139      0.2461
    124  O         63.5280   27.4700   17.8030 O.2   139  PHE139     -0.2730
    125  CB        63.6460   30.0020   19.6260 C.3   139  PHE139      0.0574
    126  CG        62.9880   29.5030   20.8910 C.ar  139  PHE139     -0.0200
    127  CD1       62.0100   28.5040   20.8230 C.ar  139  PHE139     -0.0042
    128  CD2       63.3560   30.0390   22.1310 C.ar  139  PHE139     -0.0042
    129  CE1       61.3990   28.0410   21.9940 C.ar  139  PHE139     -0.0003
    130  CE2       62.7450   29.5750   23.3030 C.ar  139  PHE139     -0.0003
    131  CZ        61.7650   28.5770   23.2340 C.ar  139  PHE139     -0.0000
    132  N         64.1820   26.6970   19.7800 N.am  140  PRO140     -0.2716
    133  CA        63.5810   25.3490   19.5390 C.3   140  PRO140      0.1536
    134  C         62.0860   25.4320   19.2150 C.2   140  PRO140      0.2599
    135  O         61.2690   25.7990   20.0590 O.2   140  PRO140     -0.2715
    136  CB        63.8440   24.5690   20.8470 C.3   140  PRO140      0.0310
    137  CG        64.1910   25.6070   21.8680 C.3   140  PRO140      0.0237
    138  CD        64.8340   26.7620   21.1040 C.3   140  PRO140      0.0939
    139  N         61.7540   25.0780   17.9780 N.am  141  THR141     -0.1937
    140  CA        60.3740   25.0970   17.5200 C.3   141  THR141      0.2028
    141  C         59.7200   26.4370   17.8440 C.2   141  THR141      0.2642
    142  O         58.6490   26.4850   18.4510 O.2   141  THR141     -0.2714
    143  CB        59.5900   23.9660   18.1900 C.3   141  THR141      0.1808
    144  OG1       59.8860   23.9440   19.5800 O.3   141  THR141     -0.2208
    145  CG2       59.9820   22.6270   17.5630 C.3   141  THR141      0.0379
    146  N         60.3660   27.5220   17.4320 N.am  142  TYR142     -0.1973
    147  CA        59.8320   28.8580   17.6800 C.3   142  TYR142      0.1639
    148  C         58.3440   28.9000   17.3540 C.2   142  TYR142      0.2290
    149  O         57.5340   29.3890   18.1410 O.2   142  TYR142     -0.2864
    150  CB        60.5830   29.8900   16.8280 C.3   142  TYR142      0.0560
    151  CG        60.1600   29.7700   15.3780 C.ar  142  TYR142     -0.0198
    152  CD1       60.4680   28.6110   14.6530 C.ar  142  TYR142     -0.0009
    153  CD2       59.4610   30.8160   14.7590 C.ar  142  TYR142     -0.0009
    154  CE1       60.0800   28.4990   13.3140 C.ar  142  TYR142      0.0417
    155  CE2       59.0730   30.7020   13.4200 C.ar  142  TYR142      0.0417
    156  CZ        59.3820   29.5440   12.6970 C.ar  142  TYR142      0.1957
    157  OH        58.9990   29.4330   11.3760 O.3   142  TYR142     -0.2866
@<TRIPOS>BOND
     1    79    80    2
     2    79    78    1
     3    89    88    2
     4    88    87    1
     5    81    78    1
     6    81    82    1
     7    30    31   ar
     8    30    28   ar
     9    31    29   ar
    10    78    77    1
    11    52    53    1
    12    82    83    1
    13    62    63    2
    14    62    61    1
    15    86    87    1
    16    84    83   ar
    17    77    69   am
    18    67    68    1
    19    36    33    1
    20    87    90    1
    21    25    24    2
    22    33    34    1
    23    33    32    1
    24    34    35    2
    25    28    27   ar
    26    83    85   ar
    27    53    54    1
    28    53    56    1
    29    69    70    2
    30    69    68    1
    31    90    91    1
    32    29    27   ar
    33    54    60   am
    34    54    55    2
    35    60    61    1
    36    58    57    1
    37    61    64    1
    38    46    47    2
    39    46    45    1
    40    68    71    1
    41    24    32   am
    42    24    23    1
    43    64    66    1
    44    64    65    1
    45    27    26    1
    46    91    92   ar
    47    91    93   ar
    48   157   156    1
    49    45    48    1
    50    45    44    1
    51    57    56    1
    52    57    59    1
    53    48    49    1
    54    92    94   ar
    55    40    39    2
    56    22    23    1
    57    22    19   am
    58    71    72    1
    59   111   110    1
    60   112   110    1
    61    23    26    1
    62    21    18    1
    63    93    95   ar
    64   110   107    1
    65    51    49   am
    66    49    50    2
    67    94    95   ar
    68   156   154   ar
    69   156   155   ar
    70    44    39   am
    71    18    19    1
    72    18    17    1
    73    39    38    1
    74    19    20    2
    75    72    73   ar
    76    72    74   ar
    77    12    11    2
    78   154   152   ar
    79   155   153   ar
    80    73    75   ar
    81    74    76   ar
    82   107   106    1
    83   107   108    1
    84    43    41    1
    85    17    11   am
    86    11    10    1
    87    38    41    1
    88    38    37    1
    89    41    42    1
    90    75    76   ar
    91   109   108    2
    92   108   113   am
    93   152   151   ar
    94   153   151   ar
    95   113   114    1
    96   151   150    1
    97    10    13    1
    98    10     9    1
    99    13    14    1
   100   105   103   ar
   101   105   104   ar
   102   114   117    1
   103   114   115    1
   104   103   101   ar
   105   117   118    1
   106     7     5    1
   107    96    97    1
   108     9     3   am
   109   150   147    1
   110   104   102   ar
   111   115   116    2
   112   115   121   am
   113    97    98    1
   114    97   100    1
   115     4     3    2
   116    14    15    1
   117    14    16    1
   118   118   119    1
   119     3     2    1
   120   101   102   ar
   121   101   100    1
   122   148   147    1
   123   148   149    2
   124   146   147    1
   125   146   141   am
   126   140   141    1
   127   140   139    1
   128   140   143    1
   129   145   143    1
   130     5     2    1
   131     5     6    1
   132   124   123    2
   133   141   142    2
   134   121   122    1
   135    98    99    2
   136   139   134   am
   137     8     6    1
   138   143   144    1
   139     2     1    1
   140   123   122    1
   141   123   132   am
   142   119   120    1
   143   122   125    1
   144   134   133    1
   145   134   135    2
   146   133   132    1
   147   133   136    1
   148   125   126    1
   149   132   138    1
   150   127   126   ar
   151   127   129   ar
   152   136   137    1
   153   126   128   ar
   154   138   137    1
   155   129   131   ar
   156   128   130   ar
   157   131   130   ar
