@<TRIPOS>MOLECULE
tmp/2k2rA00.pdb
 107 101 0 0 0
SMALL
GASTEIGER

@<TRIPOS>ATOM
      1  N         16.8620  -10.1180   -3.0950 N.3     5  ASP5       -0.1225
      2  CA        15.9740   -9.0840   -3.7070 C.3     5  ASP5        0.1805
      3  C         16.1220   -7.7630   -2.9490 C.2     5  ASP5        0.2597
      4  O         17.2120   -7.3240   -2.6420 O.2     5  ASP5       -0.2718
      5  CB        14.5190   -9.5610   -3.6190 C.3     5  ASP5        0.1424
      6  CG        13.6650   -8.8340   -4.6620 C.2     5  ASP5        0.3668
      7  OD1       13.8680   -9.0790   -5.8400 O.co2   5  ASP5       -0.2456
      8  OD2       12.8240   -8.0450   -4.2650 O.co2   5  ASP5       -0.2456
      9  N         15.0220   -7.1270   -2.6560 N.am    6  ALA6       -0.1979
     10  CA        15.0750   -5.8270   -1.9260 C.3     6  ALA6        0.1597
     11  C         15.2100   -6.0740   -0.4200 C.2     6  ALA6        0.2287
     12  O         16.1200   -5.5810    0.2150 O.2     6  ALA6       -0.2864
     13  CB        13.7910   -5.0400   -2.1970 C.3     6  ALA6        0.0319
     14  N         18.9860   -6.3680    1.3640 N.3     9  THR9       -0.1203
     15  CA        19.7440   -5.2160    1.9330 C.3     9  THR9        0.1994
     16  C         18.9010   -4.4680    2.9640 C.2     9  THR9        0.2617
     17  O         19.3820   -4.0670    4.0040 O.2     9  THR9       -0.2717
     18  CB        20.1330   -4.2670    0.7900 C.3     9  THR9        0.1784
     19  OG1       20.6400   -5.0280   -0.2970 O.3     9  THR9       -0.2211
     20  CG2       21.2030   -3.2760    1.2540 C.3     9  THR9        0.0376
     21  N         17.6570   -4.2740    2.6800 N.am   10  LEU10      -0.1979
     22  CA        16.7710   -3.5350    3.6270 C.3    10  LEU10       0.1596
     23  C         16.8550   -4.1620    5.0280 C.2    10  LEU10       0.2287
     24  O         17.0570   -3.4820    6.0130 O.2    10  LEU10      -0.2864
     25  CB        15.3240   -3.5970    3.0940 C.3    10  LEU10       0.0297
     26  CG        14.5420   -2.3160    3.4400 C.3    10  LEU10       0.0022
     27  CD1       15.1500   -1.0880    2.7250 C.3    10  LEU10       0.0001
     28  CD2       13.0860   -2.5030    2.9930 C.3    10  LEU10       0.0001
     29  N         20.7760   -4.7220    5.9640 N.3    13  HIS13      -0.1226
     30  CA        21.6440   -3.5060    6.0120 C.3    13  HIS13       0.1752
     31  C         20.8300   -2.2700    6.3960 C.2    13  HIS13       0.2595
     32  O         21.3520   -1.1740    6.4290 O.2    13  HIS13      -0.2718
     33  CB        22.2810   -3.2840    4.6400 C.3    13  HIS13       0.0759
     34  CG        23.4270   -2.3170    4.7650 C.ar   13  HIS13       0.0818
     35  ND1       23.3560   -1.0190    4.2840 N.ar   13  HIS13      -0.2268
     36  CD2       24.6770   -2.4440    5.3170 C.ar   13  HIS13       0.1154
     37  CE1       24.5310   -0.4220    4.5550 C.ar   13  HIS13       0.1986
     38  NE2       25.3730   -1.2460    5.1840 N.ar   13  HIS13      -0.2212
     39  N         19.5680   -2.4140    6.6950 N.am   14  ALA14      -0.1980
     40  CA        18.7880   -1.2000    7.0780 C.3    14  ALA14       0.1597
     41  C         17.4620   -1.5680    7.7600 C.2    14  ALA14       0.2287
     42  O         16.4060   -1.2640    7.2420 O.2    14  ALA14      -0.2864
     43  CB        18.5130   -0.3690    5.8180 C.3    14  ALA14       0.0319
     44  N         15.7880    1.9450    8.3420 N.3    17  LYS17      -0.1245
     45  CA        15.1530    2.6340    7.1850 C.3    17  LYS17       0.1561
     46  C         13.9090    1.8550    6.7860 C.2    17  LYS17       0.2260
     47  O         12.9170    2.4130    6.3670 O.2    17  LYS17      -0.2867
     48  CB        16.1270    2.6870    6.0080 C.3    17  LYS17       0.0271
     49  CG        17.4310    3.3470    6.4580 C.3    17  LYS17       0.0035
     50  CD        18.3350    3.5780    5.2440 C.3    17  LYS17       0.0206
     51  CE        19.7410    3.9640    5.7130 C.3    17  LYS17       0.1093
     52  NZ        20.4820    4.6020    4.5880 N.3    17  LYS17      -0.1314
     53  N         11.2040    3.5370    8.5390 N.3    20  VAL20      -0.1231
     54  CA        10.8890    4.8610    7.9330 C.3    20  VAL20       0.1692
     55  C         10.3640    4.6590    6.5090 C.2    20  VAL20       0.2591
     56  O          9.5500    5.4200    6.0260 O.2    20  VAL20      -0.2718
     57  CB        12.1550    5.7170    7.8920 C.3    20  VAL20       0.0266
     58  CG1       11.7880    7.1520    7.5140 C.3    20  VAL20       0.0020
     59  CG2       12.8220    5.7080    9.2690 C.3    20  VAL20       0.0020
     60  N         10.8210    3.6400    5.8330 N.am   21  VAL21      -0.1980
     61  CA        10.3400    3.3980    4.4430 C.3    21  VAL21       0.1595
     62  C          8.8350    3.1000    4.4830 C.2    21  VAL21       0.2287
     63  O          8.0830    3.5530    3.6390 O.2    21  VAL21      -0.2864
     64  CB        11.1160    2.2210    3.8260 C.3    21  VAL21       0.0276
     65  CG1       10.3930    1.7100    2.5740 C.3    21  VAL21       0.0022
     66  CG2       12.5290    2.6890    3.4360 C.3    21  VAL21       0.0022
     67  N          7.0050    6.2140    4.5730 N.3    24  THR24      -0.1218
     68  CA         6.9510    6.9960    3.3040 C.3    24  THR24       0.1862
     69  C          5.8030    6.4500    2.4830 C.2    24  THR24       0.2287
     70  O          5.1500    7.1480    1.7270 O.2    24  THR24      -0.2866
     71  CB         8.2670    6.8410    2.5360 C.3    24  THR24       0.1770
     72  OG1        9.3560    7.1100    3.4090 O.3    24  THR24      -0.2211
     73  CG2        8.2950    7.8210    1.3630 C.3    24  THR24       0.0375
     74  N          6.1200   -0.4100   -2.9850 N.3   119  TYR119     -0.1241
     75  CA         7.1390    0.2540   -3.8290 C.3   119  TYR119      0.1605
     76  C          6.5660    0.3500   -5.2300 C.2   119  TYR119      0.2264
     77  O          6.5160    1.3950   -5.8390 O.2   119  TYR119     -0.2867
     78  CB         8.3890   -0.6140   -3.8640 C.3   119  TYR119      0.0534
     79  CG         9.5020    0.1380   -4.5320 C.ar  119  TYR119     -0.0201
     80  CD1       10.2300    1.0890   -3.8160 C.ar  119  TYR119     -0.0009
     81  CD2        9.7990   -0.1180   -5.8660 C.ar  119  TYR119     -0.0009
     82  CE1       11.2670    1.7910   -4.4430 C.ar  119  TYR119      0.0417
     83  CE2       10.8330    0.5790   -6.5010 C.ar  119  TYR119      0.0417
     84  CZ        11.5690    1.5350   -5.7880 C.ar  119  TYR119      0.1957
     85  OH        12.5910    2.2230   -6.4110 O.3   119  TYR119     -0.2866
     86  N          4.2290    3.3940   -5.2860 N.3   122  PHE122     -0.1241
     87  CA         4.9830    4.6770   -5.1710 C.3   122  PHE122      0.1605
     88  C          5.6450    4.9760   -6.4870 C.2   122  PHE122      0.2264
     89  O          5.8670    6.0990   -6.8540 O.2   122  PHE122     -0.2867
     90  CB         6.0730    4.4930   -4.0930 C.3   122  PHE122      0.0534
     91  CG         6.2400    5.7420   -3.2800 C.ar  122  PHE122     -0.0203
     92  CD1        5.3750    5.9600   -2.2280 C.ar  122  PHE122     -0.0042
     93  CD2        7.2630    6.6540   -3.5640 C.ar  122  PHE122     -0.0042
     94  CE1        5.5140    7.1050   -1.4290 C.ar  122  PHE122     -0.0003
     95  CE2        7.4070    7.8020   -2.7760 C.ar  122  PHE122     -0.0003
     96  CZ         6.5320    8.0270   -1.7060 C.ar  122  PHE122     -0.0000
     97  N          4.1220    8.2000   -7.9500 N.3   126  ARG126     -0.1245
     98  CA         5.1320    9.2420   -7.6510 C.3   126  ARG126      0.1563
     99  C          5.0250   10.3860   -8.6700 C.2   126  ARG126      0.2260
    100  O          5.2230   11.5400   -8.3440 O.2   126  ARG126     -0.2867
    101  CB         6.5210    8.5620   -7.7010 C.3   126  ARG126      0.0307
    102  CG         7.5860    9.5020   -8.2740 C.3   126  ARG126      0.0489
    103  CD         8.9980    8.8800   -8.1450 C.3   126  ARG126      0.2205
    104  NE         9.9690    9.9130   -7.6570 N.pl3 126  ARG126     -0.0865
    105  CZ        10.0060   11.1130   -8.1790 C.cat 126  ARG126      0.5346
    106  NH1        9.2640   11.4090   -9.2100 N.pl3 126  ARG126      0.1354
    107  NH2       10.8150   12.0100   -7.6860 N.pl3 126  ARG126      0.1354
@<TRIPOS>BOND
     1   106   105    1
     2    99   100    2
     3    99    98    1
     4   102   103    1
     5   102   101    1
     6   105   107    1
     7   105   104    2
     8   103   104    1
     9    97    98    1
    10   101    98    1
    11    89    88    2
    12    83    81   ar
    13    83    84   ar
    14    88    87    1
    15    85    84    1
    16    81    79   ar
    17     7     6   ar
    18    77    76    2
    19    84    82   ar
    20    86    87    1
    21    76    75    1
    22    87    90    1
    23     6     8   ar
    24     6     5    1
    25    79    78    1
    26    79    80   ar
    27    82    80   ar
    28    90    91    1
    29    78    75    1
    30    75    74    1
    31     2     5    1
    32     2     1    1
    33     2     3    1
    34    93    91   ar
    35    93    95   ar
    36    91    92   ar
    37     3     9   am
    38     3     4    2
    39    95    96   ar
    40     9    10    1
    41    92    94   ar
    42    13    10    1
    43    10    11    1
    44    96    94   ar
    45    11    12    2
    46    19    18    1
    47    18    20    1
    48    18    15    1
    49    73    71    1
    50    14    15    1
    51    70    69    2
    52    15    16    1
    53    69    68    1
    54    71    68    1
    55    71    72    1
    56    65    64    1
    57    21    16   am
    58    21    22    1
    59    27    26    1
    60    16    17    2
    61    28    26    1
    62    25    26    1
    63    25    22    1
    64    68    67    1
    65    66    64    1
    66    22    23    1
    67    63    62    2
    68    64    61    1
    69    35    37   ar
    70    35    34   ar
    71    61    62    1
    72    61    60    1
    73    37    38   ar
    74    52    51    1
    75    33    34    1
    76    33    30    1
    77    34    36   ar
    78    23    24    2
    79    38    36   ar
    80    50    51    1
    81    50    49    1
    82    43    40    1
    83    60    55   am
    84    29    30    1
    85    48    49    1
    86    48    45    1
    87    30    31    1
    88    56    55    2
    89    47    46    2
    90    31    32    2
    91    31    39   am
    92    55    54    1
    93    39    40    1
    94    46    45    1
    95    40    41    1
    96    45    44    1
    97    42    41    2
    98    58    57    1
    99    57    54    1
   100    57    59    1
   101    54    53    1
