@<TRIPOS>MOLECULE
tmp/2k31A00.pdb
 181 173 0 0 0
SMALL
GASTEIGER

@<TRIPOS>ATOM
      1  N         -4.5140    2.5900    8.8050 N.3    21  ARG21      -0.1231
      2  CA        -4.4680    3.4730    7.6300 C.3    21  ARG21       0.1694
      3  C         -4.1610    2.6860    6.3550 C.2    21  ARG21       0.2592
      4  O         -3.4900    1.6500    6.4020 O.2    21  ARG21      -0.2718
      5  CB        -3.4080    4.5770    7.8160 C.3    21  ARG21       0.0321
      6  CG        -3.7140    5.5710    8.9370 C.3    21  ARG21       0.0489
      7  CD        -4.6190    6.7040    8.4680 C.3    21  ARG21       0.2205
      8  NE        -4.8930    7.6670    9.5410 N.pl3  21  ARG21      -0.0865
      9  CZ        -5.6830    8.7440    9.4190 C.cat  21  ARG21       0.5346
     10  NH1       -6.3010    9.0220    8.2720 N.pl3  21  ARG21       0.1354
     11  NH2       -5.8570    9.5490   10.4590 N.pl3  21  ARG21       0.1354
     12  N         -4.6630    3.1940    5.2230 N.am   22  TYR22      -0.1962
     13  CA        -4.4430    2.5710    3.9120 C.3    22  TYR22       0.1771
     14  C         -3.8760    3.5910    2.9300 C.2    22  TYR22       0.2620
     15  O         -4.2070    4.7780    3.0030 O.2    22  TYR22      -0.2715
     16  CB        -5.7430    2.0100    3.3280 C.3    22  TYR22       0.0574
     17  CG        -6.4110    0.9310    4.1490 C.ar   22  TYR22      -0.0198
     18  CD1       -6.0850   -0.4070    3.9640 C.ar   22  TYR22      -0.0009
     19  CD2       -7.3870    1.2470    5.0850 C.ar   22  TYR22      -0.0009
     20  CE1       -6.7140   -1.4000    4.6890 C.ar   22  TYR22       0.0417
     21  CE2       -8.0160    0.2600    5.8170 C.ar   22  TYR22       0.0417
     22  CZ        -7.6770   -1.0610    5.6130 C.ar   22  TYR22       0.1957
     23  OH        -8.3090   -2.0470    6.3300 O.3    22  TYR22      -0.2866
     24  N         -3.0150    3.1230    2.0170 N.am   23  SER23      -0.1950
     25  CA        -2.4090    3.9910    1.0000 C.3    23  SER23       0.1924
     26  C         -2.2370    3.2490   -0.3190 C.2    23  SER23       0.2314
     27  O         -2.0390    2.0300   -0.3260 O.2    23  SER23      -0.2863
     28  CB        -1.0510    4.5010    1.4750 C.3    23  SER23       0.2116
     29  OG        -0.5980    5.5830    0.6770 O.3    23  SER23      -0.2180
     30  N         -0.1150    3.5650   -4.0700 N.3    25  PHE25      -0.1241
     31  CA         0.8910    4.2010   -4.9260 C.3    25  PHE25       0.1605
     32  C          0.7540    3.6920   -6.3550 C.2    25  PHE25       0.2264
     33  O          0.3740    2.5420   -6.5740 O.2    25  PHE25      -0.2867
     34  CB         2.3390    3.9410   -4.4370 C.3    25  PHE25       0.0534
     35  CG         2.5040    3.5970   -2.9710 C.ar   25  PHE25      -0.0203
     36  CD1        2.0950    2.3630   -2.4890 C.ar   25  PHE25      -0.0042
     37  CD2        3.0900    4.4900   -2.0810 C.ar   25  PHE25      -0.0042
     38  CE1        2.2610    2.0290   -1.1640 C.ar   25  PHE25      -0.0003
     39  CE2        3.2520    4.1510   -0.7530 C.ar   25  PHE25      -0.0003
     40  CZ         2.8390    2.9220   -0.2950 C.ar   25  PHE25      -0.0000
     41  N         -3.5840    9.6320    0.2200 N.3    42  PHE42      -0.1227
     42  CA        -2.7700    9.4850    1.4230 C.3    42  PHE42       0.1736
     43  C         -3.6390    9.5150    2.6800 C.2    42  PHE42       0.2595
     44  O         -4.5360   10.3530    2.8080 O.2    42  PHE42      -0.2718
     45  CB        -1.7130   10.6090    1.4420 C.3    42  PHE42       0.0547
     46  CG        -0.6840   10.5350    2.5450 C.ar   42  PHE42      -0.0202
     47  CD1        0.2080    9.4730    2.6310 C.ar   42  PHE42      -0.0042
     48  CD2       -0.6000   11.5520    3.4830 C.ar   42  PHE42      -0.0042
     49  CE1        1.1560    9.4300    3.6360 C.ar   42  PHE42      -0.0003
     50  CE2        0.3490   11.5140    4.4820 C.ar   42  PHE42      -0.0003
     51  CZ         1.2260   10.4540    4.5590 C.ar   42  PHE42      -0.0000
     52  N         -3.3510    8.5790    3.6100 N.am   43  ASP43      -0.1974
     53  CA        -4.0770    8.4370    4.8910 C.3    43  ASP43       0.1709
     54  C         -5.5900    8.2700    4.6850 C.2    43  ASP43       0.2293
     55  O         -6.3170    9.2460    4.4620 O.2    43  ASP43      -0.2864
     56  CB        -3.7810    9.6170    5.8390 C.3    43  ASP43       0.1436
     57  CG        -2.4680    9.4500    6.5790 C.2    43  ASP43       0.3671
     58  OD1       -2.3500    8.4890    7.3680 O.co2  43  ASP43      -0.2456
     59  OD2       -1.5610   10.2790    6.3710 O.co2  43  ASP43      -0.2456
     60  N          2.7950   11.1600   -0.5260 N.3    58  ILE58      -0.1245
     61  CA         4.1440   10.6380   -0.2850 C.3    58  ILE58       0.1561
     62  C          4.7760   10.1290   -1.5790 C.2    58  ILE58       0.2260
     63  O          4.1030    9.5010   -2.4010 O.2    58  ILE58      -0.2867
     64  CB         4.1810    9.4930    0.7710 C.3    58  ILE58       0.0252
     65  CG1        2.9230    8.6240    0.7600 C.3    58  ILE58       0.0019
     66  CG2        4.3820   10.0350    2.1600 C.3    58  ILE58       0.0019
     67  CD1        3.1330    7.2940    0.1070 C.3    58  ILE58       0.0001
     68  N          7.9290    7.8070   -2.9640 N.3    60  LEU60      -0.1245
     69  CA         8.9710    6.8230   -2.6490 C.3    60  LEU60       0.1561
     70  C          9.6720    6.3580   -3.9240 C.2    60  LEU60       0.2260
     71  O          9.1130    6.4570   -5.0170 O.2    60  LEU60      -0.2867
     72  CB         8.4160    5.5990   -1.8690 C.3    60  LEU60       0.0270
     73  CG         6.9040    5.3080   -1.9800 C.3    60  LEU60       0.0019
     74  CD1        6.5990    3.8410   -1.6970 C.3    60  LEU60       0.0001
     75  CD2        6.1180    6.1760   -1.0170 C.3    60  LEU60       0.0001
     76  N         12.1080    0.9030   -0.9740 N.3    65  GLY65      -0.1210
     77  CA        11.4720    0.5910    0.2990 C.3    65  GLY65       0.1956
     78  C         10.9140   -0.8190    0.3490 C.2    65  GLY65       0.2612
     79  O         11.3520   -1.6900   -0.4090 O.2    65  GLY65      -0.2717
     80  N          9.9450   -1.0420    1.2500 N.am   66  ILE66      -0.1965
     81  CA         9.3030   -2.3590    1.4010 C.3    66  ILE66       0.1727
     82  C          8.3540   -2.6630    0.2380 C.2    66  ILE66       0.2616
     83  O          8.1900   -3.8230   -0.1510 O.2    66  ILE66      -0.2715
     84  CB         8.5280   -2.5150    2.7410 C.3    66  ILE66       0.0290
     85  CG1        7.6020   -1.3210    3.0320 C.3    66  ILE66       0.0022
     86  CG2        9.5010   -2.7200    3.8920 C.3    66  ILE66       0.0023
     87  CD1        6.1930   -1.7250    3.4050 C.3    66  ILE66       0.0001
     88  N          7.7360   -1.6040   -0.3050 N.am   67  VAL67      -0.1977
     89  CA         6.8040   -1.7350   -1.4310 C.3    67  VAL67       0.1596
     90  C          7.5760   -1.8770   -2.7520 C.2    67  VAL67       0.2287
     91  O          7.0320   -2.3590   -3.7440 O.2    67  VAL67      -0.2864
     92  CB         5.7770   -0.5480   -1.5190 C.3    67  VAL67       0.0276
     93  CG1        5.5680    0.1270   -0.1690 C.3    67  VAL67       0.0022
     94  CG2        6.1810    0.4940   -2.5530 C.3    67  VAL67       0.0022
     95  N          8.5790   -2.5440    8.7500 N.3    82  ALA82      -0.1231
     96  CA         9.1080   -1.6740    7.6850 C.3    82  ALA82       0.1694
     97  C         10.0510   -0.5830    8.2120 C.2    82  ALA82       0.2592
     98  O         11.2300   -0.5610    7.8590 O.2    82  ALA82      -0.2718
     99  CB         7.9690   -1.0430    6.8920 C.3    82  ALA82       0.0304
    100  N          9.5280    0.3000    9.0870 N.am   83  TYR83      -0.1976
    101  CA        10.2940    1.4270    9.6520 C.3    83  TYR83       0.1639
    102  C         11.5560    0.9980   10.4320 C.2    83  TYR83       0.2290
    103  O         12.3950    1.8450   10.7590 O.2    83  TYR83      -0.2864
    104  CB         9.3860    2.2640   10.5630 C.3    83  TYR83       0.0560
    105  CG         8.2810    3.0230    9.8410 C.ar   83  TYR83      -0.0198
    106  CD1        8.5490    4.1910    9.1290 C.ar   83  TYR83      -0.0009
    107  CD2        6.9660    2.5750    9.8850 C.ar   83  TYR83      -0.0009
    108  CE1        7.5370    4.8860    8.4860 C.ar   83  TYR83       0.0417
    109  CE2        5.9530    3.2640    9.2420 C.ar   83  TYR83       0.0417
    110  CZ         6.2440    4.4160    8.5460 C.ar   83  TYR83       0.1957
    111  OH         5.2380    5.1030    7.9080 O.3    83  TYR83      -0.2866
    112  N         14.1630    0.1040    3.9240 N.3    88  PHE88      -0.1227
    113  CA        12.9710    0.9440    4.0740 C.3    88  PHE88       0.1736
    114  C         13.2880    2.4150    3.7850 C.2    88  PHE88       0.2595
    115  O         14.4520    2.8280    3.8200 O.2    88  PHE88      -0.2718
    116  CB        12.3690    0.7750    5.4940 C.3    88  PHE88       0.0547
    117  CG        12.8390    1.7740    6.5330 C.ar   88  PHE88      -0.0202
    118  CD1       14.1000    1.6750    7.1020 C.ar   88  PHE88      -0.0042
    119  CD2       12.0100    2.8110    6.9340 C.ar   88  PHE88      -0.0042
    120  CE1       14.5240    2.5890    8.0490 C.ar   88  PHE88      -0.0003
    121  CE2       12.4290    3.7270    7.8800 C.ar   88  PHE88      -0.0003
    122  CZ        13.6870    3.6160    8.4380 C.ar   88  PHE88      -0.0000
    123  N         12.2380    3.1900    3.5020 N.am   89  ASN89      -0.1974
    124  CA        12.3750    4.6230    3.2380 C.3    89  ASN89       0.1688
    125  C         11.9880    5.4180    4.4890 C.2    89  ASN89       0.2292
    126  O         10.8430    5.3520    4.9490 O.2    89  ASN89      -0.2864
    127  CB        11.5230    5.0320    2.0330 C.3    89  ASN89       0.1181
    128  CG        12.3480    5.1860    0.7710 C.2    89  ASN89       0.2629
    129  OD1       12.5010    4.2410   -0.0040 O.2    89  ASN89      -0.2716
    130  ND2       12.8900    6.3790    0.5590 N.am   89  ASN89      -0.0877
    131  N          9.1720    9.1310    4.7260 N.3    92  VAL92      -0.1245
    132  CA         7.7430    9.1720    5.0830 C.3    92  VAL92       0.1561
    133  C          7.5860    9.2760    6.6100 C.2    92  VAL92       0.2260
    134  O          6.6830    9.9580    7.0980 O.2    92  VAL92      -0.2867
    135  CB         6.9570    7.9290    4.5600 C.3    92  VAL92       0.0252
    136  CG1        5.4730    8.0400    4.8940 C.3    92  VAL92       0.0019
    137  CG2        7.1250    7.7450    3.0560 C.3    92  VAL92       0.0019
    138  N          4.9630   11.5200    8.6420 N.3    96  THR96      -0.1218
    139  CA         3.9090   10.7010    9.2710 C.3    96  THR96       0.1862
    140  C          4.1330   10.5020   10.7720 C.2    96  THR96       0.2287
    141  O          3.1690   10.2750   11.5110 O.2    96  THR96      -0.2866
    142  CB         3.7950    9.3000    8.6090 C.3    96  THR96       0.1770
    143  OG1        5.0650    8.6380    8.6190 O.3    96  THR96      -0.2211
    144  CG2        3.2850    9.4030    7.1790 C.3    96  THR96       0.0375
    145  N          4.9360    8.1440   12.4970 N.3    98  TYR98      -0.1241
    146  CA         4.3030    6.9110   12.9590 C.3    98  TYR98       0.1605
    147  C          5.1970    5.7010   12.6860 C.2    98  TYR98       0.2264
    148  O          5.8060    5.5930   11.6180 O.2    98  TYR98      -0.2867
    149  CB         2.9360    6.7610   12.2570 C.3    98  TYR98       0.0534
    150  CG         2.1350    5.5210   12.6240 C.ar   98  TYR98      -0.0201
    151  CD1        1.4620    5.4270   13.8380 C.ar   98  TYR98      -0.0009
    152  CD2        2.0460    4.4510   11.7420 C.ar   98  TYR98      -0.0009
    153  CE1        0.7260    4.3020   14.1600 C.ar   98  TYR98       0.0417
    154  CE2        1.3140    3.3230   12.0570 C.ar   98  TYR98       0.0417
    155  CZ         0.6560    3.2530   13.2660 C.ar   98  TYR98       0.1957
    156  OH        -0.0770    2.1320   13.5830 O.3    98  TYR98      -0.2866
    157  N          3.3490   -4.5710    8.6090 N.3   103  ILE103     -0.1245
    158  CA         2.7410   -4.0340    7.3820 C.3   103  ILE103      0.1561
    159  C          2.6470   -5.1210    6.3090 C.2   103  ILE103      0.2260
    160  O          3.5650   -5.9290    6.1420 O.2   103  ILE103     -0.2867
    161  CB         3.4700   -2.7370    6.8290 C.3   103  ILE103      0.0252
    162  CG1        3.3530   -2.5740    5.2980 C.3   103  ILE103      0.0019
    163  CG2        4.9420   -2.6800    7.2080 C.3   103  ILE103      0.0019
    164  CD1        2.0020   -2.0960    4.8170 C.3   103  ILE103      0.0001
    165  N         -0.3990   -0.8650    0.2110 N.3   120  GLN120     -0.1245
    166  CA         0.1950   -1.1320    1.5280 C.3   120  GLN120      0.1566
    167  C         -0.6580   -0.5220    2.6280 C.2   120  GLN120      0.2260
    168  O         -1.1150    0.6190    2.5070 O.2   120  GLN120     -0.2867
    169  CB         1.6200   -0.5700    1.6200 C.3   120  GLN120      0.0367
    170  CG         2.7200   -1.5450    1.1890 C.3   120  GLN120      0.0905
    171  CD         2.8040   -1.7810   -0.3180 C.2   120  GLN120      0.2608
    172  OE1        2.4630   -0.9160   -1.1260 O.2   120  GLN120     -0.2717
    173  NE2        3.2720   -2.9640   -0.7010 N.am  120  GLN120     -0.0878
    174  N         -0.6760    0.0920    6.8620 N.3   122  ILE122     -0.1245
    175  CA         0.0470    0.0480    8.1390 C.3   122  ILE122      0.1561
    176  C         -0.9180    0.0540    9.3160 C.2   122  ILE122      0.2260
    177  O         -1.6940    0.9970    9.4950 O.2   122  ILE122     -0.2867
    178  CB         1.1020    1.1870    8.3100 C.3   122  ILE122      0.0252
    179  CG1        0.5830    2.5840    7.8410 C.3   122  ILE122      0.0019
    180  CG2        2.4100    0.7980    7.6200 C.3   122  ILE122      0.0019
    181  CD1        0.7610    2.9080    6.3590 C.3   122  ILE122      0.0001
@<TRIPOS>BOND
     1    33    32    2
     2    32    31    1
     3    71    70    2
     4    31    34    1
     5    31    30    1
     6    34    35    1
     7    70    69    1
     8    91    90    2
     9    35    36   ar
    10    35    37   ar
    11    68    69    1
    12    90    89    1
    13    69    72    1
    14    94    92    1
    15    36    38   ar
    16    63    62    2
    17    37    39   ar
    18    73    72    1
    19    73    74    1
    20    73    75    1
    21    62    61    1
    22    92    89    1
    23    92    93    1
    24    89    88    1
    25    38    40   ar
    26   172   171    2
    27    76    77    1
    28    39    40   ar
    29   173   171   am
    30    60    61    1
    31    79    78    2
    32    27    26    2
    33    26    25    1
    34   171   170    1
    35    88    82   am
    36    61    64    1
    37    83    82    2
    38   129   128    2
    39    67    65    1
    40   165   166    1
    41    41    42    1
    42    82    81    1
    43    77    78    1
    44    78    80   am
    45   130   128   am
    46    29    28    1
    47    65    64    1
    48    64    66    1
    49   128   127    1
    50    25    28    1
    51    25    24    1
    52   170   169    1
    53    80    81    1
    54    81    84    1
    55    42    45    1
    56    42    43    1
    57    45    46    1
    58   166   169    1
    59   166   167    1
    60    24    14   am
    61   127   124    1
    62   168   167    2
    63    46    47   ar
    64    46    48   ar
    65    47    49   ar
    66    43    44    2
    67    43    52   am
    68    84    85    1
    69    84    86    1
    70    14    15    2
    71    14    13    1
    72    85    87    1
    73   137   135    1
    74   124   123    1
    75   124   125    1
    76    16    13    1
    77    16    17    1
    78    48    50   ar
    79   123   114   am
    80    52    53    1
    81    49    51   ar
    82   114   115    2
    83   114   113    1
    84    13    12    1
    85   112   113    1
    86    18    17   ar
    87    18    20   ar
    88   113   116    1
    89    17    19   ar
    90    55    54    2
    91    50    51   ar
    92   125   126    2
    93   135   136    1
    94   135   132    1
    95    54    53    1
    96    20    22   ar
    97   131   132    1
    98   164   162    1
    99    53    56    1
   100   132   133    1
   101    19    21   ar
   102    12     3   am
   103   162   161    1
   104   116   117    1
   105    22    21   ar
   106    22    23    1
   107    56    57    1
   108   160   159    2
   109   159   158    1
   110     3     4    2
   111     3     2    1
   112   181   179    1
   113    59    57   ar
   114   117   119   ar
   115   117   118   ar
   116    57    58   ar
   117   133   134    2
   118   161   163    1
   119   161   158    1
   120   174   175    1
   121    99    96    1
   122   119   121   ar
   123   118   120   ar
   124   144   142    1
   125   158   157    1
   126   180   178    1
   127     2     5    1
   128     2     1    1
   129    96    97    1
   130    96    95    1
   131     5     6    1
   132   179   178    1
   133    98    97    2
   134   121   122   ar
   135   111   110    1
   136   120   122   ar
   137   175   178    1
   138   175   176    1
   139    97   100   am
   140    10     9    1
   141     7     6    1
   142     7     8    1
   143   108   110   ar
   144   108   106   ar
   145   110   109   ar
   146   142   143    1
   147   142   139    1
   148   138   139    1
   149   100   101    1
   150   106   105   ar
   151   109   107   ar
   152   139   140    1
   153   176   177    2
   154     9     8    2
   155     9    11    1
   156   101   102    1
   157   101   104    1
   158   105   107   ar
   159   105   104    1
   160   102   103    2
   161   140   141    2
   162   148   147    2
   163   152   154   ar
   164   152   150   ar
   165   154   155   ar
   166   149   150    1
   167   149   146    1
   168   145   146    1
   169   150   151   ar
   170   147   146    1
   171   155   156    1
   172   155   153   ar
   173   151   153   ar
