@<TRIPOS>MOLECULE
tmp/2k33A00.pdb
 146 144 0 0 0
SMALL
GASTEIGER

@<TRIPOS>ATOM
      1  N         11.2990   27.2610   -0.3410 N.3    37  ALA37      -0.1231
      2  CA        10.0790   26.8770    0.3600 C.3    37  ALA37       0.1694
      3  C          8.8410   27.2730   -0.4370 C.2    37  ALA37       0.2593
      4  O          7.8250   27.6700    0.1340 O.2    37  ALA37      -0.2718
      5  CB        10.0440   27.5090    1.7430 C.3    37  ALA37       0.0304
      6  N          8.9320   27.1630   -1.7580 N.am   38  SER38      -0.1938
      7  CA         7.8200   27.5140   -2.6330 C.3    38  SER38       0.2055
      8  C          7.5510   29.0150   -2.5940 C.2    38  SER38       0.2643
      9  O          8.0310   29.7210   -1.7070 O.2    38  SER38      -0.2714
     10  CB         6.5600   26.7480   -2.2250 C.3    38  SER38       0.2130
     11  OG         6.8910   25.5150   -1.6080 O.3    38  SER38      -0.2179
     12  N          6.7800   29.4970   -3.5640 N.am   39  LYS39      -0.1963
     13  CA         6.4450   30.9140   -3.6420 C.3    39  LYS39       0.1728
     14  C          5.0140   31.1610   -3.1730 C.2    39  LYS39       0.2616
     15  O          4.5190   32.2870   -3.2260 O.2    39  LYS39      -0.2715
     16  CB         6.6170   31.4210   -5.0750 C.3    39  LYS39       0.0311
     17  CG         8.0390   31.8440   -5.4030 C.3    39  LYS39       0.0038
     18  CD         9.0420   30.7680   -5.0260 C.3    39  LYS39       0.0206
     19  CE        10.4700   31.2150   -5.3010 C.3    39  LYS39       0.1093
     20  NZ        10.9540   30.7420   -6.6270 N.3    39  LYS39      -0.1314
     21  N          4.3560   30.1020   -2.7130 N.am   40  ASP40      -0.1957
     22  CA         2.9840   30.2050   -2.2320 C.3    40  ASP40       0.1840
     23  C          2.6380   29.0320   -1.3200 C.2    40  ASP40       0.2622
     24  O          1.5330   28.4910   -1.3780 O.2    40  ASP40      -0.2715
     25  CB         2.0100   30.2550   -3.4100 C.3    40  ASP40       0.1450
     26  CG         0.6640   30.8360   -3.0240 C.2    40  ASP40       0.3671
     27  OD1        0.4420   31.0690   -1.8180 O.co2  40  ASP40      -0.2456
     28  OD2       -0.1690   31.0550   -3.9290 O.co2  40  ASP40      -0.2456
     29  N          3.5900   28.6410   -0.4800 N.am   41  PHE41      -0.1960
     30  CA         3.3870   27.5300    0.4430 C.3    41  PHE41       0.1771
     31  C          3.8580   27.8970    1.8470 C.2    41  PHE41       0.2620
     32  O          3.0600   27.9770    2.7800 O.2    41  PHE41      -0.2715
     33  CB         4.1330   26.2880   -0.0490 C.3    41  PHE41       0.0574
     34  CG         3.4270   25.0010    0.2650 C.ar   41  PHE41      -0.0200
     35  CD1        2.1940   24.7160   -0.3000 C.ar   41  PHE41      -0.0042
     36  CD2        3.9950   24.0760    1.1260 C.ar   41  PHE41      -0.0042
     37  CE1        1.5420   23.5320   -0.0120 C.ar   41  PHE41      -0.0003
     38  CE2        3.3470   22.8900    1.4180 C.ar   41  PHE41      -0.0003
     39  CZ         2.1190   22.6180    0.8480 C.ar   41  PHE41      -0.0000
     40  N          5.1610   28.1180    1.9890 N.am   42  ASN42      -0.1958
     41  CA         5.7390   28.4750    3.2800 C.3    42  ASN42       0.1819
     42  C          5.1990   29.8170    3.7660 C.2    42  ASN42       0.2621
     43  O          5.0050   30.7420    2.9770 O.2    42  ASN42      -0.2715
     44  CB         7.2650   28.5330    3.1800 C.3    42  ASN42       0.1195
     45  CG         7.7560   29.8370    2.5790 C.2    42  ASN42       0.2630
     46  OD1        7.7600   30.0080    1.3600 O.2    42  ASN42      -0.2716
     47  ND2        8.1720   30.7630    3.4350 N.am   42  ASN42      -0.0877
     48  N          4.9580   29.9140    5.0690 N.am   43  ARG43      -0.1963
     49  CA         4.4390   31.1420    5.6610 C.3    43  ARG43       0.1729
     50  C          5.5470   31.9100    6.3760 C.2    43  ARG43       0.2617
     51  O          5.3100   32.9800    6.9380 O.2    43  ARG43      -0.2715
     52  CB         3.3100   30.8230    6.6420 C.3    43  ARG43       0.0348
     53  CG         3.7730   30.7000    8.0840 C.3    43  ARG43       0.0492
     54  CD         2.6170   30.3650    9.0140 C.3    43  ARG43       0.2205
     55  NE         2.8250   29.1000    9.7120 N.pl3  43  ARG43      -0.0865
     56  CZ         1.8930   28.5050   10.4490 C.cat  43  ARG43       0.5346
     57  NH1        0.6950   29.0580   10.5820 N.pl3  43  ARG43       0.1354
     58  NH2        2.1590   27.3540   11.0540 N.pl3  43  ARG43       0.1354
     59  N          6.7550   31.3580    6.3500 N.am   44  SER44      -0.1936
     60  CA         7.8980   31.9900    6.9990 C.3    44  SER44       0.2055
     61  C          7.6730   32.1050    8.5030 C.2    44  SER44       0.2643
     62  O          6.5400   32.0380    8.9810 O.2    44  SER44      -0.2714
     63  CB         8.1500   33.3760    6.4010 C.3    44  SER44       0.2130
     64  OG         8.9490   34.1660    7.2640 O.3    44  SER44      -0.2179
     65  N          8.7610   32.2790    9.2460 N.am   45  LYS45      -0.1963
     66  CA         8.6850   32.4060   10.6970 C.3    45  LYS45       0.1728
     67  C          7.6770   33.4780   11.0980 C.2    45  LYS45       0.2616
     68  O          6.7260   33.2060   11.8300 O.2    45  LYS45      -0.2715
     69  CB        10.0620   32.7450   11.2730 C.3    45  LYS45       0.0311
     70  CG        11.1730   31.8440   10.7620 C.3    45  LYS45       0.0038
     71  CD        12.0620   32.5650    9.7630 C.3    45  LYS45       0.0206
     72  CE        12.8760   31.5860    8.9320 C.3    45  LYS45       0.1093
     73  NZ        12.0070   30.6520    8.1650 N.3    45  LYS45      -0.1314
     74  N          7.8910   34.6960   10.6110 N.am   46  ALA46      -0.1963
     75  CA         6.9990   35.8080   10.9160 C.3    46  ALA46       0.1728
     76  C          6.8300   36.7240    9.7090 C.2    46  ALA46       0.2616
     77  O          7.4030   36.4790    8.6460 O.2    46  ALA46      -0.2715
     78  CB         7.5240   36.5940   12.1080 C.3    46  ALA46       0.0334
     79  N          6.0410   37.7790    9.8780 N.am   47  LEU47      -0.1963
     80  CA         5.7970   38.7320    8.8010 C.3    47  LEU47       0.1728
     81  C          6.2270   40.1380    9.2090 C.2    47  LEU47       0.2616
     82  O          6.8670   40.3260   10.2440 O.2    47  LEU47      -0.2715
     83  CB         4.3160   38.7300    8.4180 C.3    47  LEU47       0.0311
     84  CG         3.7130   37.3680    8.0750 C.3    47  LEU47       0.0022
     85  CD1        3.2700   36.6460    9.3380 C.3    47  LEU47       0.0001
     86  CD2        2.5450   37.5280    7.1120 C.3    47  LEU47       0.0001
     87  N          5.8680   41.1210    8.3910 N.am   48  PHE48      -0.1974
     88  CA         6.2160   42.5100    8.6680 C.3    48  PHE48       0.1639
     89  C          4.9630   43.3770    8.7570 C.2    48  PHE48       0.2290
     90  O          4.7440   44.2580    7.9250 O.2    48  PHE48      -0.2864
     91  CB         7.1470   43.0510    7.5810 C.3    48  PHE48       0.0560
     92  CG         6.6920   42.7300    6.1860 C.ar   48  PHE48      -0.0200
     93  CD1        6.9300   41.4810    5.6360 C.ar   48  PHE48      -0.0042
     94  CD2        6.0250   43.6770    5.4260 C.ar   48  PHE48      -0.0042
     95  CE1        6.5130   41.1840    4.3520 C.ar   48  PHE48      -0.0003
     96  CE2        5.6050   43.3850    4.1420 C.ar   48  PHE48      -0.0003
     97  CZ         5.8480   42.1360    3.6050 C.ar   48  PHE48      -0.0000
     98  N         12.6260   46.0340    8.4680 N.3    55  GLN55      -0.1245
     99  CA        13.0950   45.3450    7.2720 C.3    55  GLN55       0.1566
    100  C         14.1110   46.1950    6.5170 C.2    55  GLN55       0.2260
    101  O         14.9100   45.6790    5.7350 O.2    55  GLN55      -0.2867
    102  CB        11.9160   45.0060    6.3580 C.3    55  GLN55       0.0367
    103  CG        12.3320   44.3960    5.0290 C.3    55  GLN55       0.0905
    104  CD        11.1470   43.9420    4.1990 C.2    55  GLN55       0.2608
    105  OE1        9.9940   44.1120    4.5970 O.2    55  GLN55      -0.2717
    106  NE2       11.4260   43.3600    3.0380 N.am   55  GLN55      -0.0878
    107  N         16.8910   44.9250    8.5690 N.3    58  TYR58      -0.1241
    108  CA        16.7240   43.7600    9.4290 C.3    58  TYR58       0.1605
    109  C         17.7140   42.6610    9.0560 C.2    58  TYR58       0.2264
    110  O         18.4770   42.7960    8.0990 O.2    58  TYR58      -0.2867
    111  CB        15.2930   43.2280    9.3310 C.3    58  TYR58       0.0534
    112  CG        15.0550   42.3490    8.1250 C.ar   58  TYR58      -0.0201
    113  CD1       15.5520   42.7000    6.8760 C.ar   58  TYR58      -0.0009
    114  CD2       14.3340   41.1670    8.2340 C.ar   58  TYR58      -0.0009
    115  CE1       15.3360   41.9010    5.7700 C.ar   58  TYR58       0.0417
    116  CE2       14.1140   40.3600    7.1340 C.ar   58  TYR58       0.0417
    117  CZ        14.6170   40.7310    5.9040 C.ar   58  TYR58       0.1957
    118  OH        14.4010   39.9310    4.8060 O.3    58  TYR58      -0.2866
    119  N         16.9330   35.4920    9.6240 N.3    62  LEU62      -0.1231
    120  CA        15.5700   35.2540   10.0870 C.3    62  LEU62       0.1693
    121  C         14.6110   35.1180    8.9080 C.2    62  LEU62       0.2592
    122  O         13.3960   35.0540    9.0890 O.2    62  LEU62      -0.2718
    123  CB        15.1150   36.3940   11.0000 C.3    62  LEU62       0.0284
    124  CG        14.7140   37.6940   10.3020 C.3    62  LEU62       0.0019
    125  CD1       13.2140   37.9200   10.4150 C.3    62  LEU62       0.0001
    126  CD2       15.4780   38.8720   10.8880 C.3    62  LEU62       0.0001
    127  N         15.1670   35.0720    7.7020 N.am   63  ALA63      -0.1966
    128  CA        14.3620   34.9380    6.4940 C.3    63  ALA63       0.1728
    129  C         15.0680   34.0720    5.4570 C.2    63  ALA63       0.2616
    130  O         15.3740   34.5290    4.3550 O.2    63  ALA63      -0.2715
    131  CB        14.0490   36.3100    5.9150 C.3    63  ALA63       0.0334
    132  N         15.3270   32.8180    5.8160 N.am   64  THR64      -0.1951
    133  CA        15.9990   31.8890    4.9170 C.3    64  THR64       0.1897
    134  C         16.1700   30.5210    5.5680 C.2    64  THR64       0.2313
    135  O         15.6790   30.2810    6.6720 O.2    64  THR64      -0.2863
    136  CB        17.3810   32.4190    4.4910 C.3    64  THR64       0.1794
    137  OG1       17.7660   33.5120    5.3320 O.3    64  THR64      -0.2208
    138  CG2       17.3630   32.8720    3.0390 C.3    64  THR64       0.0378
    139  N         14.7020   28.0110    5.2600 N.3    66  ASP66      -0.1239
    140  CA        13.3980   27.4810    5.6430 C.3    66  ASP66       0.1674
    141  C         13.4350   25.9590    5.7310 C.2    66  ASP66       0.2266
    142  O         14.3860   25.3230    5.2740 O.2    66  ASP66      -0.2867
    143  CB        12.3310   27.9210    4.6390 C.3    66  ASP66       0.1410
    144  CG        11.0770   28.4370    5.3170 C.2    66  ASP66       0.3668
    145  OD1       10.3800   27.6320    5.9680 O.co2  66  ASP66      -0.2456
    146  OD2       10.7920   29.6480    5.1960 O.co2  66  ASP66      -0.2456
@<TRIPOS>BOND
     1    20    19    1
     2    17    16    1
     3    17    18    1
     4    19    18    1
     5    16    13    1
     6    28    26   ar
     7    13    12    1
     8    13    14    1
     9    12     8   am
    10    25    26    1
    11    25    22    1
    12    15    14    2
    13    14    21   am
    14    26    27   ar
    15    21    22    1
    16     7     8    1
    17     7    10    1
    18     7     6    1
    19     8     9    2
    20    22    23    1
    21    10    11    1
    22     6     3   am
    23    24    23    2
    24    23    29   am
    25    29    30    1
    26     3     4    2
    27     3     2    1
    28     1     2    1
    29    35    37   ar
    30    35    34   ar
    31    33    34    1
    32    33    30    1
    33    37    39   ar
    34    34    36   ar
    35     2     5    1
    36    30    31    1
    37    39    38   ar
    38    36    38   ar
    39    46    45    2
    40    31    40   am
    41    31    32    2
    42    40    41    1
    43    45    44    1
    44    45    47   am
    45    43    42    2
    46   106   104   am
    47   138   136    1
    48    44    41    1
    49    41    42    1
    50    97    96   ar
    51    97    95   ar
    52    42    48   am
    53    96    94   ar
    54   104   105    2
    55   104   103    1
    56    95    93   ar
    57   130   129    2
    58   136   133    1
    59   136   137    1
    60   143   144    1
    61   143   140    1
    62   118   117    1
    63   133   134    1
    64   133   132    1
    65   103   102    1
    66    48    49    1
    67   146   144   ar
    68   139   140    1
    69   142   141    2
    70   144   145   ar
    71    94    92   ar
    72   129   132   am
    73   129   128    1
    74   134   135    2
    75    93    92   ar
    76   140   141    1
    77    49    50    1
    78    49    52    1
    79   101   100    2
    80   115   117   ar
    81   115   113   ar
    82   117   116   ar
    83   131   128    1
    84    92    91    1
    85    59    50   am
    86    59    60    1
    87   102    99    1
    88    50    51    2
    89    63    60    1
    90    63    64    1
    91   128   127    1
    92   100    99    1
    93    52    53    1
    94   113   112   ar
    95    60    61    1
    96    86    84    1
    97   116   114   ar
    98    99    98    1
    99    91    88    1
   100   127   121   am
   101    90    89    2
   102    84    83    1
   103    84    85    1
   104    53    54    1
   105   110   109    2
   106   112   114   ar
   107   112   111    1
   108    73    72    1
   109    87    88    1
   110    87    81   am
   111    83    80    1
   112    61    62    2
   113    61    65   am
   114   107   108    1
   115    77    76    2
   116    88    89    1
   117    80    81    1
   118    80    79    1
   119   121   122    2
   120   121   120    1
   121    72    71    1
   122    54    55    1
   123   109   108    1
   124    81    82    2
   125    65    66    1
   126   111   108    1
   127   119   120    1
   128    76    79   am
   129    76    75    1
   130    55    56    2
   131    71    70    1
   132   120   123    1
   133   124   125    1
   134   124   126    1
   135   124   123    1
   136    56    57    1
   137    56    58    1
   138    74    75    1
   139    74    67   am
   140    66    67    1
   141    66    69    1
   142    70    69    1
   143    75    78    1
   144    67    68    2
