@<TRIPOS>MOLECULE
tmp/2k3mA01.pdb
 102 101 0 0 0
SMALL
GASTEIGER

@<TRIPOS>ATOM
      1  N         63.4970   -4.3150    2.7180 N.3    37  ILE37      -0.1231
      2  CA        63.0720   -3.6170    1.4880 C.3    37  ILE37       0.1692
      3  C         62.9090   -4.6070    0.3420 C.2    37  ILE37       0.2592
      4  O         63.8850   -5.1990   -0.1250 O.2    37  ILE37      -0.2718
      5  CB        64.0590   -2.5400    1.0060 C.3    37  ILE37       0.0266
      6  CG1       63.4490   -1.8000   -0.2030 C.3    37  ILE37       0.0019
      7  CG2       65.4060   -3.1960    0.5890 C.3    37  ILE37       0.0020
      8  CD1       64.3790   -0.6720   -0.6660 C.3    37  ILE37       0.0001
      9  N         61.6860   -4.7610   -0.1430 N.am   38  HIS38      -0.1976
     10  CA        61.4170   -5.6400   -1.2740 C.3    38  HIS38       0.1656
     11  C         60.3780   -4.9690   -2.1590 C.2    38  HIS38       0.2291
     12  O         59.3590   -4.4750   -1.6720 O.2    38  HIS38      -0.2864
     13  CB        60.9200   -7.0220   -0.7910 C.3    38  HIS38       0.0771
     14  CG        62.0600   -8.0090   -0.7600 C.ar   38  HIS38       0.0820
     15  ND1       63.3740   -7.6150   -0.5570 N.ar   38  HIS38      -0.2267
     16  CD2       62.0990   -9.3710   -0.9280 C.ar   38  HIS38       0.1154
     17  CE1       64.1410   -8.7200   -0.6090 C.ar   38  HIS38       0.1986
     18  NE2       63.4140   -9.8170   -0.8330 N.ar   38  HIS38      -0.2212
     19  N         59.7410   -5.1230  -11.1520 N.3    42  ARG42      -0.1245
     20  CA        61.0040   -4.4960  -11.4630 C.3    42  ARG42       0.1563
     21  C         61.7480   -5.3270  -12.4980 C.2    42  ARG42       0.2260
     22  O         61.3730   -6.4660  -12.7750 O.2    42  ARG42      -0.2867
     23  CB        61.8350   -4.3440  -10.1780 C.3    42  ARG42       0.0307
     24  CG        62.4590   -5.6920   -9.7900 C.3    42  ARG42       0.0489
     25  CD        62.8490   -5.6900   -8.3200 C.3    42  ARG42       0.2205
     26  NE        63.4510   -6.9750   -7.9780 N.pl3  42  ARG42      -0.0865
     27  CZ        64.3800   -7.0790   -7.0360 C.cat  42  ARG42       0.5346
     28  NH1       64.7620   -6.0190   -6.3810 N.pl3  42  ARG42       0.1354
     29  NH2       64.9090   -8.2420   -6.7670 N.pl3  42  ARG42       0.1354
     30  N         65.9700   -6.9590  -11.0040 N.3    45  PHE45      -0.1227
     31  CA        67.1310   -6.5410  -10.2230 C.3    45  PHE45       0.1736
     32  C         67.5490   -5.1170  -10.5970 C.2    45  PHE45       0.2595
     33  O         67.0060   -4.5490  -11.5320 O.2    45  PHE45      -0.2718
     34  CB        68.3230   -7.5030  -10.4680 C.3    45  PHE45       0.0547
     35  CG        67.8350   -8.8930  -10.8210 C.ar   45  PHE45      -0.0202
     36  CD1       67.3820   -9.1700  -12.1200 C.ar   45  PHE45      -0.0042
     37  CD2       67.8330   -9.9030   -9.8550 C.ar   45  PHE45      -0.0042
     38  CE1       66.9310  -10.4530  -12.4480 C.ar   45  PHE45      -0.0003
     39  CE2       67.3830  -11.1890  -10.1830 C.ar   45  PHE45      -0.0003
     40  CZ        66.9340  -11.4650  -11.4790 C.ar   45  PHE45      -0.0000
     41  N         68.5140   -4.5960   -9.8210 N.am   46  PHE46      -0.1962
     42  CA        69.0910   -3.2400   -9.9970 C.3    46  PHE46       0.1771
     43  C         69.0410   -2.4380   -8.7100 C.2    46  PHE46       0.2619
     44  O         68.0590   -1.7480   -8.4730 O.2    46  PHE46      -0.2715
     45  CB        68.3550   -2.4050  -11.0600 C.3    46  PHE46       0.0574
     46  CG        68.5090   -2.9490  -12.4760 C.ar   46  PHE46      -0.0200
     47  CD1       69.5470   -3.8300  -12.8400 C.ar   46  PHE46      -0.0042
     48  CD2       67.5690   -2.5550  -13.4350 C.ar   46  PHE46      -0.0042
     49  CE1       69.6300   -4.2990  -14.1530 C.ar   46  PHE46      -0.0003
     50  CE2       67.6580   -3.0270  -14.7460 C.ar   46  PHE46      -0.0003
     51  CZ        68.6870   -3.8990  -15.1050 C.ar   46  PHE46      -0.0000
     52  N         70.1200   -2.5540   -7.9200 N.am   47  ARG47      -0.1963
     53  CA        70.2970   -1.8570   -6.6300 C.3    47  ARG47       0.1729
     54  C         70.4920   -2.8860   -5.5290 C.2    47  ARG47       0.2616
     55  O         70.0960   -4.0240   -5.7090 O.2    47  ARG47      -0.2715
     56  CB        69.1030   -0.9380   -6.2720 C.3    47  ARG47       0.0348
     57  CG        67.9150   -1.7790   -5.7430 C.3    47  ARG47       0.0492
     58  CD        66.6410   -0.9280   -5.7060 C.3    47  ARG47       0.2205
     59  NE        66.9640    0.4450   -5.3430 N.pl3  47  ARG47      -0.0865
     60  CZ        67.4030    0.7580   -4.1270 C.cat  47  ARG47       0.5346
     61  NH1       67.5440   -0.1710   -3.2180 N.pl3  47  ARG47       0.1354
     62  NH2       67.6870    1.9990   -3.8390 N.pl3  47  ARG47       0.1354
     63  N         71.1300   -2.4920   -4.4170 N.am   48  CYS48      -0.1954
     64  CA        71.3840   -3.4110   -3.3070 C.3    48  CYS48       0.1843
     65  C         72.3950   -4.4760   -3.7450 C.2    48  CYS48       0.2625
     66  O         72.0820   -5.6550   -3.8670 O.2    48  CYS48      -0.2714
     67  CB        70.0450   -4.0260   -2.8000 C.3    48  CYS48       0.0997
     68  SG        69.5670   -5.4670   -3.7880 S.3    48  CYS48      -0.0797
     69  N         73.6490   -4.0660   -3.9610 N.am   49  ASN49      -0.1958
     70  CA        74.6920   -5.0020   -4.3790 C.3    49  ASN49       0.1804
     71  C         76.0040   -4.5990   -3.6930 C.2    49  ASN49       0.2463
     72  O         76.1980   -3.4250   -3.3810 O.2    49  ASN49      -0.2730
     73  CB        74.8560   -4.9610   -5.9210 C.3    49  ASN49       0.1195
     74  CG        73.6540   -4.2690   -6.5570 C.2    49  ASN49       0.2630
     75  OD1       72.6540   -4.9180   -6.8600 O.2    49  ASN49      -0.2716
     76  ND2       73.6910   -2.9810   -6.7640 N.am   49  ASN49      -0.0877
     77  N         76.8980   -5.5210   -3.4450 N.am   50  PRO50      -0.2727
     78  CA        78.1920   -5.2070   -2.7770 C.3    50  PRO50       0.1402
     79  C         79.1980   -4.5550   -3.7230 C.2    50  PRO50       0.2269
     80  O         80.2070   -5.1640   -4.0800 O.2    50  PRO50      -0.2865
     81  CB        78.6800   -6.5790   -2.3030 C.3    50  PRO50       0.0296
     82  CG        78.1430   -7.5340   -3.3190 C.3    50  PRO50       0.0237
     83  CD        76.7910   -6.9600   -3.7700 C.3    50  PRO50       0.0939
     84  N         67.1460  -18.8240   -6.5970 N.3    68  LEU68      -0.1245
     85  CA        67.5150  -18.5540   -5.2140 C.3    68  LEU68       0.1561
     86  C         66.4050  -19.0210   -4.2940 C.2    68  LEU68       0.2260
     87  O         66.6460  -19.3820   -3.1580 O.2    68  LEU68      -0.2867
     88  CB        67.7530  -17.0520   -4.9710 C.3    68  LEU68       0.0270
     89  CG        68.3830  -16.8170   -3.5680 C.3    68  LEU68       0.0019
     90  CD1       69.9070  -16.9650   -3.6370 C.3    68  LEU68       0.0001
     91  CD2       68.0450  -15.4070   -3.0660 C.3    68  LEU68       0.0001
     92  N         77.0950  -17.1020    2.0780 N.3   126  ARG126     -0.1245
     93  CA        77.7030  -15.9320    1.4460 C.3   126  ARG126      0.1563
     94  C         79.1770  -15.8300    1.8400 C.2   126  ARG126      0.2260
     95  O         79.5460  -16.1710    2.9640 O.2   126  ARG126     -0.2867
     96  CB        76.9670  -14.6690    1.8900 C.3   126  ARG126      0.0307
     97  CG        77.4050  -13.4530    1.0320 C.3   126  ARG126      0.0489
     98  CD        76.3810  -13.1540   -0.0740 C.3   126  ARG126      0.2205
     99  NE        76.5310  -14.1000   -1.1690 N.pl3 126  ARG126     -0.0865
    100  CZ        75.6340  -14.1640   -2.1440 C.cat 126  ARG126      0.5346
    101  NH1       74.5820  -13.3950   -2.1140 N.pl3 126  ARG126      0.1354
    102  NH2       75.8030  -14.9960   -3.1310 N.pl3 126  ARG126      0.1354
@<TRIPOS>BOND
     1    51    50   ar
     2    51    49   ar
     3    50    48   ar
     4    49    47   ar
     5    48    46   ar
     6    47    46   ar
     7    22    21    2
     8    21    20    1
     9    46    45    1
    10    38    36   ar
    11    38    40   ar
    12    36    35   ar
    13    33    32    2
    14    40    39   ar
    15    20    19    1
    16    20    23    1
    17    45    42    1
    18    30    31    1
    19    35    34    1
    20    35    37   ar
    21    32    31    1
    22    32    41   am
    23    34    31    1
    24    39    37   ar
    25    23    24    1
    26    42    41    1
    27    42    43    1
    28    24    25    1
    29    43    44    2
    30    43    52   am
    31    25    26    1
    32    26    27    2
    33    52    53    1
    34    27    29    1
    35    27    28    1
    36    75    74    2
    37    76    74   am
    38    53    56    1
    39    53    54    1
    40    84    85    1
    41    74    73    1
    42    56    57    1
    43    73    70    1
    44    57    58    1
    45    55    54    2
    46    58    59    1
    47    54    63   am
    48    59    60    2
    49    85    88    1
    50    85    86    1
    51    88    89    1
    52    63    64    1
    53    70    69    1
    54    70    71    1
    55    86    87    2
    56    60    62    1
    57    60    61    1
    58    80    79    2
    59    69    65   am
    60    66    65    2
    61    68    67    1
    62    83    77    1
    63    83    82    1
    64    65    64    1
    65    79    78    1
    66    71    77   am
    67    71    72    2
    68    90    89    1
    69    89    91    1
    70    77    78    1
    71    82    81    1
    72    64    67    1
    73   102   100    1
    74    78    81    1
    75    11    12    2
    76    11    10    1
    77   100   101    1
    78   100    99    2
    79    10    13    1
    80    10     9    1
    81    99    98    1
    82    16    18   ar
    83    16    14   ar
    84    18    17   ar
    85    13    14    1
    86    14    15   ar
    87     8     6    1
    88    17    15   ar
    89     6     5    1
    90     9     3   am
    91     4     3    2
    92    98    97    1
    93     3     2    1
    94     7     5    1
    95     5     2    1
    96    97    96    1
    97    93    94    1
    98    93    96    1
    99    93    92    1
   100     2     1    1
   101    94    95    2
