@<TRIPOS>MOLECULE
tmp/2k3vA02.pdb
 166 160 0 0 0
SMALL
GASTEIGER

@<TRIPOS>ATOM
      1  N          0.3490    7.9490   -3.4080 N.3    32  PHE32      -0.1241
      2  CA        -0.6950    7.0270   -3.8220 C.3    32  PHE32       0.1605
      3  C         -0.8070    6.9760   -5.3480 C.2    32  PHE32       0.2264
      4  O         -1.2640    5.9800   -5.9070 O.2    32  PHE32      -0.2867
      5  CB        -2.0100    7.5510   -3.2440 C.3    32  PHE32       0.0534
      6  CG        -3.2570    6.8910   -3.8350 C.ar   32  PHE32      -0.0203
      7  CD1       -3.3570    5.5350   -3.8690 C.ar   32  PHE32      -0.0042
      8  CD2       -4.2660    7.6600   -4.3270 C.ar   32  PHE32      -0.0042
      9  CE1       -4.5150    4.9220   -4.4180 C.ar   32  PHE32      -0.0003
     10  CE2       -5.4230    7.0470   -4.8750 C.ar   32  PHE32      -0.0003
     11  CZ        -5.5230    5.6910   -4.9090 C.ar   32  PHE32      -0.0000
     12  N          1.5040    4.5530   -7.1560 N.3    35  CYS35      -0.1221
     13  CA         0.9640    3.2040   -7.1330 C.3    35  CYS35       0.1808
     14  C         -0.2610    3.1610   -8.0490 C.2    35  CYS35       0.2601
     15  O         -1.3110    2.6510   -7.6630 O.2    35  CYS35      -0.2717
     16  CB         0.6280    2.7540   -5.7100 C.3    35  CYS35       0.0970
     17  SG         1.6260    3.5480   -4.3980 S.3    35  CYS35      -0.0800
     18  N         -0.0850    3.7040   -9.2450 N.am   36  GLN36      -0.1979
     19  CA        -1.1630    3.7340  -10.2190 C.3    36  GLN36       0.1601
     20  C         -0.5950    3.6940  -11.6390 C.2    36  GLN36       0.2287
     21  O         -0.7780    4.6350  -12.4110 O.2    36  GLN36      -0.2864
     22  CB        -2.0500    4.9630  -10.0170 C.3    36  GLN36       0.0394
     23  CG        -3.5230    4.5630   -9.9040 C.3    36  GLN36       0.0908
     24  CD        -4.2440    5.4180   -8.8580 C.2    36  GLN36       0.2608
     25  OE1       -4.9150    4.9210   -7.9690 O.2    36  GLN36      -0.2717
     26  NE2       -4.0680    6.7270   -9.0150 N.am   36  GLN36      -0.0878
     27  N          0.5710   -1.1270  -11.5680 N.3    39  HIS39      -0.1226
     28  CA        -0.4880   -1.8660  -10.9020 C.3    39  HIS39       0.1752
     29  C         -1.8410   -1.4730  -11.4980 C.2    39  HIS39       0.2596
     30  O         -2.3180   -2.1090  -12.4380 O.2    39  HIS39      -0.2718
     31  CB        -0.4250   -1.6600   -9.3870 C.3    39  HIS39       0.0759
     32  CG         0.8030   -2.2500   -8.7370 C.ar   39  HIS39       0.0818
     33  ND1        1.0870   -3.6050   -8.7620 N.ar   39  HIS39      -0.2268
     34  CD2        1.8180   -1.6570   -8.0460 C.ar   39  HIS39       0.1154
     35  CE1        2.2230   -3.8060   -8.1110 C.ar   39  HIS39       0.1986
     36  NE2        2.6750   -2.5980   -7.6680 N.ar   39  HIS39      -0.2212
     37  N         -2.4220   -0.4280  -10.9280 N.am   40  GLY40      -0.1957
     38  CA        -3.7110    0.0570  -11.3910 C.3    40  GLY40       0.1869
     39  C         -4.4690    0.7620  -10.2640 C.2    40  GLY40       0.2309
     40  O         -3.8580    1.3090   -9.3480 O.2    40  GLY40      -0.2863
     41  N         -7.6550    0.6110   -7.3150 N.3    42  LEU42      -0.1245
     42  CA        -8.3590   -0.3080   -6.4370 C.3    42  LEU42       0.1561
     43  C         -9.7030   -0.6790   -7.0670 C.2    42  LEU42       0.2260
     44  O        -10.1730   -1.8060   -6.9170 O.2    42  LEU42      -0.2867
     45  CB        -8.4810    0.2820   -5.0300 C.3    42  LEU42       0.0270
     46  CG        -7.1760    0.7530   -4.3860 C.3    42  LEU42       0.0019
     47  CD1       -7.3880    2.0520   -3.6060 C.3    42  LEU42       0.0001
     48  CD2       -6.5670   -0.3460   -3.5130 C.3    42  LEU42       0.0001
     49  N         -9.3960   -3.6650   -9.0530 N.3    45  MET45      -0.1230
     50  CA        -8.8220   -4.8180   -8.3800 C.3    45  MET45       0.1702
     51  C         -9.9160   -5.7700   -7.8940 C.2    45  MET45       0.2592
     52  O        -11.0900   -5.5860   -8.2120 O.2    45  MET45      -0.2718
     53  CB        -7.9850   -4.3490   -7.1880 C.3    45  MET45       0.0401
     54  CG        -6.8140   -3.4780   -7.6480 C.3    45  MET45       0.0596
     55  SD        -5.5090   -3.5170   -6.4320 S.3    45  MET45      -0.1393
     56  CE        -4.5420   -2.1160   -6.9690 C.3    45  MET45       0.0692
     57  N         -9.4920   -6.7660   -7.1300 N.am   46  ASP46      -0.1974
     58  CA       -10.4220   -7.7470   -6.5960 C.3    46  ASP46       0.1709
     59  C        -11.5900   -7.0230   -5.9240 C.2    46  ASP46       0.2293
     60  O        -11.6180   -5.7950   -5.8740 O.2    46  ASP46      -0.2864
     61  CB        -9.7460   -8.6310   -5.5460 C.3    46  ASP46       0.1436
     62  CG        -8.3240   -8.2130   -5.1670 C.2    46  ASP46       0.3671
     63  OD1       -8.0110   -7.0160   -5.0810 O.co2  46  ASP46      -0.2456
     64  OD2       -7.5080   -9.1890   -4.9520 O.co2  46  ASP46      -0.2456
     65  N        -12.0560   -7.0580   -3.0040 N.3    48  ASN48      -0.1225
     66  CA       -11.5740   -6.7710   -1.6640 C.3    48  ASN48       0.1785
     67  C        -10.9120   -5.3910   -1.6490 C.2    48  ASN48       0.2597
     68  O        -10.9980   -4.6680   -0.6580 O.2    48  ASN48      -0.2718
     69  CB       -10.5310   -7.8000   -1.2220 C.3    48  ASN48       0.1169
     70  CG       -11.0530   -9.2250   -1.4110 C.2    48  ASN48       0.2627
     71  OD1      -12.2100   -9.4540   -1.7270 O.2    48  ASN48      -0.2716
     72  ND2      -10.1390  -10.1680   -1.2020 N.am   48  ASN48      -0.0877
     73  N        -10.2680   -5.0680   -2.7610 N.am   49  HIS49      -0.1975
     74  CA        -9.5920   -3.7880   -2.8880 C.3    49  HIS49       0.1656
     75  C        -10.6010   -2.7130   -3.2960 C.2    49  HIS49       0.2291
     76  O        -10.4500   -1.5460   -2.9370 O.2    49  HIS49      -0.2864
     77  CB        -8.4120   -3.8910   -3.8570 C.3    49  HIS49       0.0771
     78  CG        -7.1720   -4.5030   -3.2510 C.ar   49  HIS49       0.0820
     79  ND1       -7.0030   -5.8700   -3.1110 N.ar   49  HIS49      -0.2267
     80  CD2       -6.0430   -3.9230   -2.7530 C.ar   49  HIS49       0.1154
     81  CE1       -5.8230   -6.0900   -2.5510 C.ar   49  HIS49       0.1986
     82  NE2       -5.2290   -4.8820   -2.3290 N.ar   49  HIS49      -0.2212
     83  N        -12.5820   -0.7950   -0.6400 N.3    52  HIS52      -0.1241
     84  CA       -11.7640    0.2700   -0.0840 C.3    52  HIS52       0.1621
     85  C        -11.5830    1.3740   -1.1280 C.2    52  HIS52       0.2264
     86  O        -11.7920    2.5500   -0.8350 O.2    52  HIS52      -0.2867
     87  CB       -10.4340   -0.2810    0.4340 C.3    52  HIS52       0.0745
     88  CG       -10.5760   -1.2380    1.5940 C.ar   52  HIS52       0.0817
     89  ND1      -10.1600   -2.5560    1.5330 N.ar   52  HIS52      -0.2268
     90  CD2      -11.0910   -1.0540    2.8430 C.ar   52  HIS52       0.1154
     91  CE1      -10.4180   -3.1300    2.6980 C.ar   52  HIS52       0.1986
     92  NE2      -10.9950   -2.1980    3.5090 N.ar   52  HIS52      -0.2212
     93  N         -8.6680    4.5170    1.7680 N.3    56  LEU56      -0.1231
     94  CA        -7.3170    4.5180    2.3040 C.3    56  LEU56       0.1693
     95  C         -6.3280    4.1940    1.1830 C.2    56  LEU56       0.2592
     96  O         -6.6630    3.4770    0.2420 O.2    56  LEU56      -0.2718
     97  CB        -7.2160    3.5760    3.5050 C.3    56  LEU56       0.0284
     98  CG        -6.9770    2.1000    3.1810 C.3    56  LEU56       0.0019
     99  CD1       -5.8660    1.5200    4.0590 C.3    56  LEU56       0.0001
    100  CD2       -8.2740    1.2970    3.2930 C.3    56  LEU56       0.0001
    101  N         -5.1270    4.7380    1.3210 N.am   57  MET57      -0.1965
    102  CA        -4.0870    4.5150    0.3320 C.3    57  MET57       0.1736
    103  C         -3.5060    3.1050    0.4550 C.2    57  MET57       0.2616
    104  O         -3.8070    2.3860    1.4070 O.2    57  MET57      -0.2715
    105  CB        -2.9710    5.5450    0.5230 C.3    57  MET57       0.0427
    106  CG        -3.4390    6.9420    0.1100 C.3    57  MET57       0.0599
    107  SD        -2.2330    8.1610    0.6060 S.3    57  MET57      -0.1393
    108  CE        -2.9350    8.6760    2.1640 C.3    57  MET57       0.0692
    109  N         -2.6840    2.7510   -0.5220 N.am   58  CYS58      -0.1968
    110  CA        -2.0580    1.4390   -0.5350 C.3    58  CYS58       0.1712
    111  C         -1.1960    1.3060    0.7220 C.2    58  CYS58       0.2296
    112  O         -1.5220    0.5350    1.6240 O.2    58  CYS58      -0.2864
    113  CB        -1.2450    1.2130   -1.8110 C.3    58  CYS58       0.0983
    114  SG        -2.0680    1.7580   -3.3520 S.3    58  CYS58      -0.0798
    115  N         -2.1760    0.5730    3.9460 N.3    61  CYS61      -0.1221
    116  CA        -2.4590   -0.8270    4.2120 C.3    61  CYS61       0.1808
    117  C         -1.1690   -1.6240    4.0130 C.2    61  CYS61       0.2601
    118  O         -0.7700   -2.3940    4.8860 O.2    61  CYS61      -0.2717
    119  CB        -3.5950   -1.3510    3.3320 C.3    61  CYS61       0.0970
    120  SG        -5.0680   -1.7090    4.3580 S.3    61  CYS61      -0.0800
    121  N         -0.5520   -1.4120    2.8600 N.am   62  HIS62      -0.1975
    122  CA         0.6860   -2.1020    2.5350 C.3    62  HIS62       0.1656
    123  C          1.8740   -1.3090    3.0830 C.2    62  HIS62       0.2291
    124  O          2.7900   -0.9620    2.3390 O.2    62  HIS62      -0.2864
    125  CB         0.7860   -2.3570    1.0300 C.3    62  HIS62       0.0771
    126  CG        -0.2450   -3.3240    0.5010 C.ar   62  HIS62       0.0820
    127  ND1       -0.3120   -4.6460    0.9060 N.ar   62  HIS62      -0.2267
    128  CD2       -1.2510   -3.1480   -0.4050 C.ar   62  HIS62       0.1154
    129  CE1       -1.3160   -5.2290    0.2670 C.ar   62  HIS62       0.1986
    130  NE2       -1.8950   -4.2990   -0.5450 N.ar   62  HIS62      -0.2212
    131  N          0.4810  -10.2870    4.3120 N.3    72  LYS72      -0.1231
    132  CA        -0.8780   -9.8060    4.1300 C.3    72  LYS72       0.1678
    133  C         -1.3360   -9.0900    5.4030 C.2    72  LYS72       0.2434
    134  O         -1.4610   -9.6800    6.4740 O.2    72  LYS72      -0.2733
    135  CB        -1.7980  -10.9510    3.7040 C.3    72  LYS72       0.0284
    136  CG        -2.1790  -11.8240    4.9010 C.3    72  LYS72       0.0035
    137  CD        -2.3120  -13.2920    4.4890 C.3    72  LYS72       0.0206
    138  CE        -3.3540  -14.0100    5.3490 C.3    72  LYS72       0.1093
    139  NZ        -3.5270  -15.4080    4.8940 N.3    72  LYS72      -0.1314
    140  N         -1.5850   -7.7870    5.2580 N.am   73  PRO73      -0.2729
    141  CA        -2.0300   -6.9180    6.3270 C.3    73  PRO73       0.1401
    142  C         -3.1520   -7.5950    7.1010 C.2    73  PRO73       0.2269
    143  O         -3.8220   -8.4610    6.5410 O.2    73  PRO73      -0.2865
    144  CB        -2.5320   -5.6590    5.6240 C.3    73  PRO73       0.0296
    145  CG        -1.6280   -5.5930    4.3910 C.3    73  PRO73       0.0237
    146  CD        -1.4480   -7.0620    4.0140 C.3    73  PRO73       0.0939
    147  N         -6.7530   -7.3760    9.1320 N.3    75  CYS75      -0.1235
    148  CA        -7.9680   -6.5840    9.2190 C.3    75  CYS75       0.1677
    149  C         -8.1260   -6.1040   10.6630 C.2    75  CYS75       0.2270
    150  O         -8.8030   -5.1100   10.9200 O.2    75  CYS75      -0.2867
    151  CB        -9.1910   -7.3690    8.7410 C.3    75  CYS75       0.0956
    152  SG        -8.9150   -8.3800    7.2400 S.3    75  CYS75      -0.0801
    153  N         -9.1820  -11.8880    6.0410 N.3    85  ALA85      -0.1231
    154  CA        -8.7370  -11.7410    4.6650 C.3    85  ALA85       0.1694
    155  C         -9.2950  -12.8940    3.8270 C.2    85  ALA85       0.2591
    156  O         -9.4800  -14.0000    4.3320 O.2    85  ALA85      -0.2718
    157  CB        -7.2090  -11.6790    4.6270 C.3    85  ALA85       0.0304
    158  N         -9.5470  -12.5950    2.5610 N.am   86  LYS86      -0.1980
    159  CA       -10.0790  -13.5920    1.6490 C.3    86  LYS86       0.1596
    160  C         -9.0920  -13.8040    0.4990 C.2    86  LYS86       0.2287
    161  O         -9.2040  -14.7750   -0.2490 O.2    86  LYS86      -0.2864
    162  CB       -11.4850  -13.2010    1.1880 C.3    86  LYS86       0.0298
    163  CG       -12.4370  -14.3960    1.2570 C.3    86  LYS86       0.0038
    164  CD       -12.4770  -15.1430   -0.0780 C.3    86  LYS86       0.0206
    165  CE       -11.7080  -16.4630    0.0090 C.3    86  LYS86       0.1093
    166  NZ       -11.6700  -17.1290   -1.3120 N.3    86  LYS86      -0.1314
@<TRIPOS>BOND
     1    30    29    2
     2    21    20    2
     3    20    19    1
     4    27    28    1
     5    29    37   am
     6    29    28    1
     7    38    37    1
     8    38    39    1
     9    28    31    1
    10    39    40    2
    11    19    22    1
    12    19    18    1
    13    22    23    1
    14    23    24    1
    15    31    32    1
    16    18    14   am
    17    49    50    1
    18    26    24   am
    19    24    25    2
    20    33    32   ar
    21    33    35   ar
    22    32    34   ar
    23    50    51    1
    24    50    53    1
    25    52    51    2
    26    35    36   ar
    27    14    15    2
    28    14    13    1
    29    34    36   ar
    30    51    57   am
    31    54    53    1
    32    54    55    1
    33    41    42    1
    34    12    13    1
    35    13    16    1
    36    57    58    1
    37    43    44    2
    38    43    42    1
    39    56    55    1
    40    58    59    1
    41    58    61    1
    42    42    45    1
    43    59    60    2
    44     4     3    2
    45    16    17    1
    46    61    62    1
    47     3     2    1
    48    62    63   ar
    49    62    64   ar
    50    45    46    1
    51    11    10   ar
    52    11     9   ar
    53    10     8   ar
    54     9     7   ar
    55    46    47    1
    56    46    48    1
    57     8     6   ar
    58     7     6   ar
    59    77    78    1
    60    77    74    1
    61     6     5    1
    62     2     1    1
    63     2     5    1
    64   114   113    1
    65    75    76    2
    66    75    74    1
    67    78    79   ar
    68    78    80   ar
    69    79    81   ar
    70    65    66    1
    71    74    73    1
    72    73    67   am
    73    80    82   ar
    74    81    82   ar
    75   113   110    1
    76    71    70    2
    77    66    67    1
    78    66    69    1
    79    67    68    2
    80    70    69    1
    81    70    72   am
    82   166   165    1
    83    85    86    2
    84    85    84    1
    85    83    84    1
    86   130   128   ar
    87   130   129   ar
    88   110   109    1
    89   110   111    1
    90   109   103   am
    91   128   126   ar
    92   161   160    2
    93    84    87    1
    94   164   165    1
    95   164   163    1
    96   106   105    1
    97   106   107    1
    98    96    95    2
    99   129   127   ar
   100   102   103    1
   101   102   105    1
   102   102   101    1
   103    87    88    1
   104   103   104    2
   105   160   159    1
   106   126   127   ar
   107   126   125    1
   108   107   108    1
   109   111   112    2
   110   125   122    1
   111    95   101   am
   112    95    94    1
   113   162   163    1
   114   162   159    1
   115    89    88   ar
   116    89    91   ar
   117    88    90   ar
   118   159   158    1
   119    93    94    1
   120    94    97    1
   121   124   123    2
   122   122   121    1
   123   122   123    1
   124   158   155   am
   125    91    92   ar
   126    90    92   ar
   127   121   117   am
   128    98   100    1
   129    98    97    1
   130    98    99    1
   131   119   116    1
   132   119   120    1
   133   135   132    1
   134   135   136    1
   135   155   156    2
   136   155   154    1
   137   115   116    1
   138   117   116    1
   139   117   118    2
   140   146   145    1
   141   146   140    1
   142   132   131    1
   143   132   133    1
   144   145   144    1
   145   137   136    1
   146   137   138    1
   147   157   154    1
   148   154   153    1
   149   139   138    1
   150   140   133   am
   151   140   141    1
   152   133   134    2
   153   144   141    1
   154   141   142    1
   155   143   142    2
   156   152   151    1
   157   151   148    1
   158   147   148    1
   159   148   149    1
   160   149   150    2
