@<TRIPOS>MOLECULE
tmp/2k3vA03.pdb
 130 127 0 0 0
SMALL
GASTEIGER

@<TRIPOS>ATOM
      1  N        -12.0560   -7.0580   -3.0040 N.3    48  ASN48      -0.1240
      2  CA       -11.5740   -6.7710   -1.6640 C.3    48  ASN48       0.1653
      3  C        -10.9120   -5.3910   -1.6490 C.2    48  ASN48       0.2266
      4  O        -10.9980   -4.6680   -0.6580 O.2    48  ASN48      -0.2867
      5  CB       -10.5310   -7.8000   -1.2220 C.3    48  ASN48       0.1155
      6  CG       -11.0530   -9.2250   -1.4110 C.2    48  ASN48       0.2627
      7  OD1      -12.2100   -9.4540   -1.7270 O.2    48  ASN48      -0.2716
      8  ND2      -10.1390  -10.1680   -1.2020 N.am   48  ASN48      -0.0877
      9  N        -13.9840   -2.3160   -2.4880 N.3    51  PRO51      -0.2102
     10  CA       -14.6600   -1.8610   -1.2930 C.3    51  PRO51       0.1504
     11  C        -13.9010   -0.6850   -0.6930 C.2    51  PRO51       0.2575
     12  O        -14.5360    0.2900   -0.2940 O.2    51  PRO51      -0.2718
     13  CB       -14.6410   -3.0620   -0.3500 C.3    51  PRO51       0.0282
     14  CG       -14.6100   -4.2770   -1.3360 C.3    51  PRO51       0.0208
     15  CD       -14.1820   -3.7340   -2.6970 C.3    51  PRO51       0.0893
     16  N        -12.5820   -0.7950   -0.6400 N.am   52  HIS52      -0.1976
     17  CA       -11.7640    0.2700   -0.0840 C.3    52  HIS52       0.1656
     18  C        -11.5830    1.3740   -1.1280 C.2    52  HIS52       0.2291
     19  O        -11.7920    2.5500   -0.8350 O.2    52  HIS52      -0.2864
     20  CB       -10.4340   -0.2810    0.4340 C.3    52  HIS52       0.0771
     21  CG       -10.5760   -1.2380    1.5940 C.ar   52  HIS52       0.0820
     22  ND1      -10.1600   -2.5560    1.5330 N.ar   52  HIS52      -0.2267
     23  CD2      -11.0910   -1.0540    2.8430 C.ar   52  HIS52       0.1154
     24  CE1      -10.4180   -3.1300    2.6980 C.ar   52  HIS52       0.1986
     25  NE2      -10.9950   -2.1980    3.5090 N.ar   52  HIS52      -0.2212
     26  N        -10.7330    5.3450   -0.1430 N.3    55  LEU55      -0.1231
     27  CA       -10.8560    5.4150    1.3030 C.3    55  LEU55       0.1693
     28  C         -9.4640    5.5640    1.9220 C.2    55  LEU55       0.2591
     29  O         -9.1500    6.5980    2.5100 O.2    55  LEU55      -0.2718
     30  CB       -11.6390    4.2120    1.8330 C.3    55  LEU55       0.0284
     31  CG       -13.1510    4.4000    1.9620 C.3    55  LEU55       0.0019
     32  CD1      -13.8100    3.1550    2.5600 C.3    55  LEU55       0.0001
     33  CD2      -13.4810    5.6630    2.7610 C.3    55  LEU55       0.0001
     34  N         -8.6680    4.5170    1.7680 N.am   56  LEU56      -0.1980
     35  CA        -7.3170    4.5180    2.3040 C.3    56  LEU56       0.1596
     36  C         -6.3280    4.1940    1.1830 C.2    56  LEU56       0.2287
     37  O         -6.6630    3.4770    0.2420 O.2    56  LEU56      -0.2864
     38  CB        -7.2160    3.5760    3.5050 C.3    56  LEU56       0.0297
     39  CG        -6.9770    2.1000    3.1810 C.3    56  LEU56       0.0022
     40  CD1       -5.8660    1.5200    4.0590 C.3    56  LEU56       0.0001
     41  CD2       -8.2740    1.2970    3.2930 C.3    56  LEU56       0.0001
     42  N         -0.9520    2.8630    3.3160 N.3    60  ASP60      -0.1225
     43  CA        -1.7950    2.8890    4.4990 C.3    60  ASP60       0.1805
     44  C         -2.1000    1.4540    4.9340 C.2    60  ASP60       0.2598
     45  O         -2.2560    1.1820    6.1230 O.2    60  ASP60      -0.2718
     46  CB        -3.1250    3.5880    4.2120 C.3    60  ASP60       0.1424
     47  CG        -3.0130    5.0740    3.8650 C.2    60  ASP60       0.3668
     48  OD1       -1.9100    5.5970    3.6450 O.co2  60  ASP60      -0.2456
     49  OD2       -4.1340    5.7110    3.8230 O.co2  60  ASP60      -0.2456
     50  N         -2.1760    0.5730    3.9460 N.am   61  CYS61      -0.1970
     51  CA        -2.4590   -0.8270    4.2120 C.3    61  CYS61       0.1712
     52  C         -1.1690   -1.6240    4.0130 C.2    61  CYS61       0.2296
     53  O         -0.7700   -2.3940    4.8860 O.2    61  CYS61      -0.2864
     54  CB        -3.5950   -1.3510    3.3320 C.3    61  CYS61       0.0983
     55  SG        -5.0680   -1.7090    4.3580 S.3    61  CYS61      -0.0798
     56  N         -1.5850   -7.7870    5.2580 N.3    73  PRO73      -0.2102
     57  CA        -2.0300   -6.9180    6.3270 C.3    73  PRO73       0.1504
     58  C         -3.1520   -7.5950    7.1010 C.2    73  PRO73       0.2576
     59  O         -3.8220   -8.4610    6.5410 O.2    73  PRO73      -0.2718
     60  CB        -2.5320   -5.6590    5.6240 C.3    73  PRO73       0.0282
     61  CG        -1.6280   -5.5930    4.3910 C.3    73  PRO73       0.0208
     62  CD        -1.4480   -7.0620    4.0140 C.3    73  PRO73       0.0893
     63  N         -3.3340   -7.1970    8.3520 N.am   74  THR74      -0.1939
     64  CA        -4.3770   -7.7800    9.1790 C.3    74  THR74       0.2028
     65  C         -5.5620   -6.8200    9.2990 C.2    74  THR74       0.2642
     66  O         -5.3770   -5.6270    9.5330 O.2    74  THR74      -0.2714
     67  CB        -3.7580   -8.1540   10.5270 C.3    74  THR74       0.1808
     68  OG1       -3.2150   -6.9290   11.0110 O.3    74  THR74      -0.2208
     69  CG2       -2.5410   -9.0690   10.3800 C.3    74  THR74       0.0379
     70  N         -6.7530   -7.3760    9.1320 N.am   75  CYS75      -0.1967
     71  CA        -7.9680   -6.5840    9.2190 C.3    75  CYS75       0.1712
     72  C         -8.1260   -6.1040   10.6630 C.2    75  CYS75       0.2296
     73  O         -8.8030   -5.1100   10.9200 O.2    75  CYS75      -0.2864
     74  CB        -9.1910   -7.3690    8.7410 C.3    75  CYS75       0.0983
     75  SG        -8.9150   -8.3800    7.2400 S.3    75  CYS75      -0.0798
     76  N         -6.1500   -4.7080   12.1730 N.3    77  THR77      -0.1203
     77  CA        -5.4160   -3.4570   12.2510 C.3    77  THR77       0.1994
     78  C         -6.3180   -2.2840   11.8610 C.2    77  THR77       0.2618
     79  O         -5.8360   -1.1790   11.6190 O.2    77  THR77      -0.2717
     80  CB        -4.1700   -3.5830   11.3720 C.3    77  THR77       0.1784
     81  OG1       -3.4930   -4.7250   11.8920 O.3    77  THR77      -0.2211
     82  CG2       -3.1830   -2.4340   11.5860 C.3    77  THR77       0.0376
     83  N         -7.6120   -2.5650   11.8130 N.am   78  CYS78      -0.1955
     84  CA        -8.5860   -1.5480   11.4570 C.3    78  CYS78       0.1843
     85  C         -9.9760   -2.0560   11.8450 C.2    78  CYS78       0.2625
     86  O        -10.6920   -1.4010   12.6010 O.2    78  CYS78      -0.2714
     87  CB        -8.5060   -1.1830    9.9730 C.3    78  CYS78       0.0997
     88  SG        -7.3480    0.2130    9.7330 S.3    78  CYS78      -0.0797
     89  N        -10.3160   -3.2200   11.3100 N.am   79  HIS79      -0.1973
     90  CA       -11.6080   -3.8230   11.5920 C.3    79  HIS79       0.1656
     91  C        -11.5040   -4.6990   12.8420 C.2    79  HIS79       0.2291
     92  O        -10.5350   -5.4380   13.0070 O.2    79  HIS79      -0.2864
     93  CB       -12.1260   -4.5890   10.3730 C.3    79  HIS79       0.0771
     94  CG       -12.2690   -3.7430    9.1310 C.ar   79  HIS79       0.0820
     95  ND1      -13.1150   -2.6500    9.0610 N.ar   79  HIS79      -0.2267
     96  CD2      -11.6650   -3.8410    7.9120 C.ar   79  HIS79       0.1154
     97  CE1      -13.0160   -2.1220    7.8500 C.ar   79  HIS79       0.1986
     98  NE2      -12.1180   -2.8610    7.1390 N.ar   79  HIS79      -0.2212
     99  N        -13.3870   -9.4230   10.9830 N.3    83  ARG83      -0.1231
    100  CA       -13.0220   -9.2870    9.5830 C.3    83  ARG83       0.1694
    101  C        -11.7570  -10.0930    9.2830 C.2    83  ARG83       0.2593
    102  O        -10.7400   -9.9310    9.9550 O.2    83  ARG83      -0.2718
    103  CB       -12.7830   -7.8210    9.2160 C.3    83  ARG83       0.0321
    104  CG       -13.6780   -7.3950    8.0500 C.3    83  ARG83       0.0489
    105  CD       -15.1380   -7.7670    8.3150 C.3    83  ARG83       0.2205
    106  NE       -15.9830   -6.5520    8.2820 N.pl3  83  ARG83      -0.0865
    107  CZ       -16.5480   -6.0530    7.1630 C.cat  83  ARG83       0.5346
    108  NH1      -16.3630   -6.6610    5.9720 N.pl3  83  ARG83       0.1354
    109  NH2      -17.2850   -4.9610    7.2500 N.pl3  83  ARG83       0.1354
    110  N        -11.8620  -10.9450    8.2740 N.am   84  THR84      -0.1939
    111  CA       -10.7390  -11.7780    7.8770 C.3    84  THR84       0.2028
    112  C        -10.4180  -11.5690    6.3960 C.2    84  THR84       0.2642
    113  O        -11.2740  -11.1340    5.6270 O.2    84  THR84      -0.2714
    114  CB       -11.0780  -13.2280    8.2270 C.3    84  THR84       0.1808
    115  OG1      -12.4490  -13.3610    7.8610 O.3    84  THR84      -0.2208
    116  CG2      -11.0680  -13.4840    9.7350 C.3    84  THR84       0.0379
    117  N         -9.1820  -11.8880    6.0410 N.am   85  ALA85      -0.1963
    118  CA        -8.7370  -11.7410    4.6650 C.3    85  ALA85       0.1728
    119  C         -9.2950  -12.8940    3.8270 C.2    85  ALA85       0.2616
    120  O         -9.4800  -14.0000    4.3320 O.2    85  ALA85      -0.2715
    121  CB        -7.2090  -11.6790    4.6270 C.3    85  ALA85       0.0334
    122  N         -9.5470  -12.5950    2.5610 N.am   86  LYS86      -0.1977
    123  CA       -10.0790  -13.5920    1.6490 C.3    86  LYS86       0.1596
    124  C         -9.0920  -13.8040    0.4990 C.2    86  LYS86       0.2287
    125  O         -9.2040  -14.7750   -0.2490 O.2    86  LYS86      -0.2864
    126  CB       -11.4850  -13.2010    1.1880 C.3    86  LYS86       0.0298
    127  CG       -12.4370  -14.3960    1.2570 C.3    86  LYS86       0.0038
    128  CD       -12.4770  -15.1430   -0.0780 C.3    86  LYS86       0.0206
    129  CE       -11.7080  -16.4630    0.0090 C.3    86  LYS86       0.1093
    130  NZ       -11.6700  -17.1290   -1.3120 N.3    86  LYS86      -0.1314
@<TRIPOS>BOND
     1     1     2    1
     2    15     9    1
     3    15    14    1
     4     9    10    1
     5     7     6    2
     6     2     3    1
     7     2     5    1
     8     3     4    2
     9     6     5    1
    10     6     8   am
    11    14    13    1
    12   130   129    1
    13    10    11    1
    14    10    13    1
    15    18    19    2
    16    18    17    1
    17    11    16   am
    18    11    12    2
    19    16    17    1
    20   125   124    2
    21    26    27    1
    22    17    20    1
    23   128   129    1
    24   128   127    1
    25    37    36    2
    26    20    21    1
    27   124   123    1
    28    36    35    1
    29   126   127    1
    30   126   123    1
    31    27    30    1
    32    27    28    1
    33    22    21   ar
    34    22    24   ar
    35    21    23   ar
    36   123   122    1
    37    34    28   am
    38    34    35    1
    39    30    31    1
    40    28    29    2
    41    31    32    1
    42    31    33    1
    43    35    38    1
    44   122   119   am
    45    24    25   ar
    46    23    25   ar
    47    39    41    1
    48    39    38    1
    49    39    40    1
    50    42    43    1
    51    54    51    1
    52    54    55    1
    53    48    47   ar
    54    49    47   ar
    55   119   120    2
    56   119   118    1
    57    47    46    1
    58    50    51    1
    59    50    44   am
    60    52    51    1
    61    52    53    2
    62    62    61    1
    63    62    56    1
    64    46    43    1
    65    61    60    1
    66    43    44    1
    67   121   118    1
    68   118   117    1
    69    44    45    2
    70    56    57    1
    71    60    57    1
    72   113   112    2
    73   108   107    1
    74   117   112   am
    75    57    58    1
    76   112   111    1
    77    59    58    2
    78    58    63   am
    79    98    97   ar
    80    98    96   ar
    81   107   109    1
    82   107   106    2
    83    75    74    1
    84    97    95   ar
    85   115   114    1
    86   111   114    1
    87   111   110    1
    88    96    94   ar
    89   104   105    1
    90   104   103    1
    91   114   116    1
    92   110   101   am
    93   106   105    1
    94    63    64    1
    95    74    71    1
    96    95    94   ar
    97    94    93    1
    98    70    71    1
    99    70    65   am
   100    64    65    1
   101    64    67    1
   102   103   100    1
   103    71    72    1
   104   101   100    1
   105   101   102    2
   106    65    66    2
   107   100    99    1
   108    88    87    1
   109    87    84    1
   110    93    90    1
   111    69    67    1
   112    67    68    1
   113    72    73    2
   114    89    90    1
   115    89    85   am
   116    80    82    1
   117    80    81    1
   118    80    77    1
   119    84    83    1
   120    84    85    1
   121    90    91    1
   122    79    78    2
   123    83    78   am
   124    85    86    2
   125    78    77    1
   126    76    77    1
   127    91    92    2
