@<TRIPOS>MOLECULE
tmp/2k3vA01.pdb
 145 139 0 0 0
SMALL
GASTEIGER

@<TRIPOS>ATOM
      1  N          8.6560   -3.7380    1.7810 N.3     5  LEU5       -0.1245
      2  CA         8.0390   -3.5470    0.4790 C.3     5  LEU5        0.1561
      3  C          8.7540   -2.4140   -0.2590 C.2     5  LEU5        0.2260
      4  O          9.0200   -2.5180   -1.4550 O.2     5  LEU5       -0.2867
      5  CB         6.5310   -3.3300    0.6270 C.3     5  LEU5        0.0270
      6  CG         5.6640   -3.8390   -0.5260 C.3     5  LEU5        0.0019
      7  CD1        5.0390   -5.1930   -0.1850 C.3     5  LEU5        0.0001
      8  CD2        4.6080   -2.8020   -0.9160 C.3     5  LEU5        0.0001
      9  N         11.8500   -3.9920   -1.7920 N.3     8  PHE8       -0.1227
     10  CA        11.5800   -4.8050   -2.9660 C.3     8  PHE8        0.1736
     11  C         11.3710   -3.9300   -4.2030 C.2     8  PHE8        0.2595
     12  O         11.8060   -4.2820   -5.2980 O.2     8  PHE8       -0.2718
     13  CB        10.2940   -5.5840   -2.6840 C.3     8  PHE8        0.0547
     14  CG         9.7720   -6.3780   -3.8830 C.ar    8  PHE8       -0.0202
     15  CD1       10.4210   -7.5020   -4.2890 C.ar    8  PHE8       -0.0042
     16  CD2        8.6580   -5.9610   -4.5430 C.ar    8  PHE8       -0.0042
     17  CE1        9.9370   -8.2390   -5.4020 C.ar    8  PHE8       -0.0003
     18  CE2        8.1740   -6.6980   -5.6550 C.ar    8  PHE8       -0.0003
     19  CZ         8.8230   -7.8220   -6.0620 C.ar    8  PHE8       -0.0000
     20  N         10.7040   -2.8050   -3.9870 N.am    9  HIS9       -0.1975
     21  CA        10.4320   -1.8760   -5.0710 C.3     9  HIS9        0.1656
     22  C         11.7150   -1.1290   -5.4410 C.2     9  HIS9        0.2291
     23  O         11.9700   -0.8700   -6.6160 O.2     9  HIS9       -0.2864
     24  CB         9.2830   -0.9350   -4.7050 C.3     9  HIS9        0.0771
     25  CG         7.9110   -1.5320   -4.9110 C.ar    9  HIS9        0.0820
     26  ND1        7.2740   -2.2980   -3.9510 N.ar    9  HIS9       -0.2267
     27  CD2        7.0620   -1.4660   -5.9770 C.ar    9  HIS9        0.1154
     28  CE1        6.0960   -2.6720   -4.4270 C.ar    9  HIS9        0.1986
     29  NE2        5.9670   -2.1560   -5.6840 N.ar    9  HIS9       -0.2212
     30  N         13.9170   -2.6580   -7.6060 N.3    12  MET12      -0.1245
     31  CA        13.2850   -2.6440   -8.9140 C.3    12  MET12       0.1570
     32  C         13.2060   -1.2210   -9.4700 C.2    12  MET12       0.2261
     33  O         12.4300   -0.9500  -10.3850 O.2    12  MET12      -0.2867
     34  CB        11.8750   -3.2290   -8.8060 C.3    12  MET12       0.0387
     35  CG        11.7870   -4.5820   -9.5140 C.3    12  MET12       0.0595
     36  SD        11.0810   -5.8000   -8.4160 S.3    12  MET12      -0.1393
     37  CE         9.7430   -4.8490   -7.7170 C.3    12  MET12       0.0692
     38  N         11.1940    5.5290   -6.4540 N.3    17  ASN17      -0.1225
     39  CA        10.0880    4.7230   -6.9410 C.3    17  ASN17       0.1785
     40  C          8.7690    5.3240   -6.4490 C.2    17  ASN17       0.2597
     41  O          7.7260    5.1340   -7.0720 O.2    17  ASN17      -0.2718
     42  CB        10.1780    3.2890   -6.4170 C.3    17  ASN17       0.1169
     43  CG         9.4450    2.3190   -7.3450 C.2    17  ASN17       0.2627
     44  OD1       10.0300    1.4320   -7.9460 O.2    17  ASN17      -0.2716
     45  ND2        8.1360    2.5350   -7.4290 N.am   17  ASN17      -0.0877
     46  N          8.8600    6.0370   -5.3360 N.am   18  CYS18      -0.1970
     47  CA         7.6870    6.6670   -4.7540 C.3    18  CYS18       0.1712
     48  C          8.1250    7.9690   -4.0800 C.2    18  CYS18       0.2296
     49  O          7.4720    8.4420   -3.1520 O.2    18  CYS18      -0.2864
     50  CB         6.9690    5.7330   -3.7780 C.3    18  CYS18       0.0983
     51  SG         7.0900    4.0030   -4.3640 S.3    18  CYS18      -0.0798
     52  N          1.9210   10.2900   -3.4060 N.3    31  GLU31      -0.1245
     53  CA         2.5310    8.9720   -3.4520 C.3    31  GLU31       0.1567
     54  C          1.5360    7.9450   -3.9970 C.2    31  GLU31       0.2260
     55  O          1.8560    7.1920   -4.9150 O.2    31  GLU31      -0.2867
     56  CB         3.0460    8.5570   -2.0720 C.3    31  GLU31       0.0388
     57  CG         4.5430    8.8420   -1.9370 C.3    31  GLU31       0.1160
     58  CD         4.8170    9.7970   -0.7740 C.2    31  GLU31       0.3649
     59  OE1        4.0650   10.7630   -0.5730 O.co2  31  GLU31      -0.2457
     60  OE2        5.8540    9.5070   -0.0620 O.co2  31  GLU31      -0.2457
     61  N          1.7940    7.2170   -7.4790 N.3    34  GLN34      -0.1231
     62  CA         2.8670    6.3680   -7.9680 C.3    34  GLN34       0.1698
     63  C          2.3900    4.9180   -8.0710 C.2    34  GLN34       0.2592
     64  O          2.8250    4.1790   -8.9530 O.2    34  GLN34      -0.2718
     65  CB         4.1030    6.4770   -7.0740 C.3    34  GLN34       0.0381
     66  CG         4.7060    7.8810   -7.1400 C.3    34  GLN34       0.0905
     67  CD         4.7580    8.3880   -8.5830 C.2    34  GLN34       0.2608
     68  OE1        5.0470    7.6560   -9.5150 O.2    34  GLN34      -0.2717
     69  NE2        4.4640    9.6780   -8.7140 N.am   34  GLN34      -0.0878
     70  N          1.5040    4.5530   -7.1560 N.am   35  CYS35      -0.1970
     71  CA         0.9640    3.2040   -7.1330 C.3    35  CYS35       0.1712
     72  C         -0.2610    3.1610   -8.0490 C.2    35  CYS35       0.2296
     73  O         -1.3110    2.6510   -7.6630 O.2    35  CYS35      -0.2864
     74  CB         0.6280    2.7540   -5.7100 C.3    35  CYS35       0.0983
     75  SG         1.6260    3.5480   -4.3980 S.3    35  CYS35      -0.0798
     76  N          0.0820    2.5960  -11.9420 N.3    37  SER37      -0.1202
     77  CA         0.6770    2.4220  -13.2560 C.3    37  SER37       0.2020
     78  C          1.0420    0.9520  -13.4750 C.2    37  SER37       0.2619
     79  O          0.3780    0.2510  -14.2360 O.2    37  SER37      -0.2717
     80  CB         1.9140    3.3070  -13.4220 C.3    37  SER37       0.2103
     81  OG         2.4230    3.2690  -14.7520 O.3    37  SER37      -0.2182
     82  N          2.0970    0.5300  -12.7930 N.am   38  CYS38      -0.1955
     83  CA         2.5580   -0.8430  -12.9030 C.3    38  CYS38       0.1843
     84  C          1.5110   -1.7550  -12.2590 C.2    38  CYS38       0.2625
     85  O          1.5750   -2.9750  -12.3980 O.2    38  CYS38      -0.2714
     86  CB         3.9400   -1.0280  -12.2730 C.3    38  CYS38       0.0997
     87  SG         5.0070    0.4040  -12.6740 S.3    38  CYS38      -0.0797
     88  N          0.5710   -1.1270  -11.5680 N.am   39  HIS39      -0.1973
     89  CA        -0.4880   -1.8660  -10.9020 C.3    39  HIS39       0.1656
     90  C         -1.8410   -1.4730  -11.4980 C.2    39  HIS39       0.2291
     91  O         -2.3180   -2.1090  -12.4380 O.2    39  HIS39      -0.2864
     92  CB        -0.4250   -1.6600   -9.3870 C.3    39  HIS39       0.0771
     93  CG         0.8030   -2.2500   -8.7370 C.ar   39  HIS39       0.0820
     94  ND1        1.0870   -3.6050   -8.7620 N.ar   39  HIS39      -0.2267
     95  CD2        1.8180   -1.6570   -8.0460 C.ar   39  HIS39       0.1154
     96  CE1        2.2230   -3.8060   -8.1110 C.ar   39  HIS39       0.1986
     97  NE2        2.6750   -2.5980   -7.6680 N.ar   39  HIS39      -0.2212
     98  N         -2.6840    2.7510   -0.5220 N.3    58  CYS58      -0.1221
     99  CA        -2.0580    1.4390   -0.5350 C.3    58  CYS58       0.1808
    100  C         -1.1960    1.3060    0.7220 C.2    58  CYS58       0.2601
    101  O         -1.5220    0.5350    1.6240 O.2    58  CYS58      -0.2717
    102  CB        -1.2450    1.2130   -1.8110 C.3    58  CYS58       0.0970
    103  SG        -2.0680    1.7580   -3.3520 S.3    58  CYS58      -0.0800
    104  N         -0.1130    2.0690    0.7420 N.am   59  ALA59      -0.1979
    105  CA         0.7980    2.0450    1.8740 C.3    59  ALA59       0.1597
    106  C         -0.0080    1.9440    3.1700 C.2    59  ALA59       0.2287
    107  O          0.2350    1.0590    3.9900 O.2    59  ALA59      -0.2864
    108  CB         1.6900    3.2870    1.8370 C.3    59  ALA59       0.0319
    109  N         -0.5520   -1.4120    2.8600 N.3    62  HIS62      -0.1241
    110  CA         0.6860   -2.1020    2.5350 C.3    62  HIS62       0.1621
    111  C          1.8740   -1.3090    3.0830 C.2    62  HIS62       0.2264
    112  O          2.7900   -0.9620    2.3390 O.2    62  HIS62      -0.2867
    113  CB         0.7860   -2.3570    1.0300 C.3    62  HIS62       0.0745
    114  CG        -0.2450   -3.3240    0.5010 C.ar   62  HIS62       0.0817
    115  ND1       -0.3120   -4.6460    0.9060 N.ar   62  HIS62      -0.2268
    116  CD2       -1.2510   -3.1480   -0.4050 C.ar   62  HIS62       0.1154
    117  CE1       -1.3160   -5.2290    0.2670 C.ar   62  HIS62       0.1986
    118  NE2       -1.8950   -4.2990   -0.5450 N.ar   62  HIS62      -0.2212
    119  N          4.6970    0.0870    3.4870 N.3    64  PRO64      -0.2116
    120  CA         5.9510   -0.1140    2.7930 C.3    64  PRO64       0.1372
    121  C          7.1040    0.0040    3.7800 C.2    64  PRO64       0.2244
    122  O          7.8880   -0.9380    3.8920 O.2    64  PRO64      -0.2868
    123  CB         6.0060    1.0020    1.7520 C.3    64  PRO64       0.0268
    124  CG         4.5280    1.4710    1.5830 C.3    64  PRO64       0.0207
    125  CD         4.0140    1.2700    3.0070 C.3    64  PRO64       0.0892
    126  N          7.5390   -7.8140    2.1120 N.3    69  VAL69      -0.1231
    127  CA         7.0100   -8.5910    1.0030 C.3    69  VAL69       0.1692
    128  C          6.5550   -9.9580    1.5170 C.2    69  VAL69       0.2593
    129  O          7.2950  -10.6370    2.2270 O.2    69  VAL69      -0.2718
    130  CB         8.0530   -8.6880   -0.1120 C.3    69  VAL69       0.0266
    131  CG1        7.8560   -9.9600   -0.9380 C.3    69  VAL69       0.0020
    132  CG2        8.0190   -7.4450   -1.0040 C.3    69  VAL69       0.0020
    133  N          5.3390  -10.3230    1.1360 N.am   70  GLY70      -0.1942
    134  CA         4.7760  -11.5970    1.5490 C.3    70  GLY70       0.2014
    135  C          4.1430  -11.4930    2.9380 C.2    70  GLY70       0.2638
    136  O          4.2240  -12.4280    3.7330 O.2    70  GLY70      -0.2714
    137  N          3.5270  -10.3470    3.1880 N.am   71  GLU71      -0.1977
    138  CA         2.8800  -10.1080    4.4670 C.3    71  GLU71       0.1602
    139  C          1.5120   -9.4560    4.2560 C.2    71  GLU71       0.2287
    140  O          1.4220   -8.2460    4.0530 O.2    71  GLU71      -0.2864
    141  CB         3.7630   -9.2500    5.3760 C.3    71  GLU71       0.0415
    142  CG         3.2870   -9.3220    6.8280 C.3    71  GLU71       0.1163
    143  CD         2.4620   -8.0860    7.1960 C.2    71  GLU71       0.3649
    144  OE1        1.4820   -7.7680    6.5080 O.co2  71  GLU71      -0.2457
    145  OE2        2.8720   -7.4480    8.2400 O.co2  71  GLU71      -0.2457
@<TRIPOS>BOND
     1    81    80    1
     2    79    78    2
     3    78    77    1
     4    78    82   am
     5    80    77    1
     6    77    76    1
     7    83    82    1
     8    83    86    1
     9    83    84    1
    10    87    86    1
    11    91    90    2
    12    85    84    2
    13    84    88   am
    14    88    89    1
    15    90    89    1
    16    89    92    1
    17    33    32    2
    18    68    67    2
    19    35    34    1
    20    35    36    1
    21    32    31    1
    22    92    93    1
    23    64    63    2
    24    31    34    1
    25    31    30    1
    26    94    93   ar
    27    94    96   ar
    28    93    95   ar
    29    69    67   am
    30    67    66    1
    31    36    37    1
    32    96    97   ar
    33    63    62    1
    34    63    70   am
    35    72    73    2
    36    72    71    1
    37    95    97   ar
    38    62    61    1
    39    62    65    1
    40    44    43    2
    41    45    43   am
    42    43    42    1
    43    70    71    1
    44    66    65    1
    45    71    74    1
    46    41    40    2
    47    39    38    1
    48    39    40    1
    49    39    42    1
    50    23    22    2
    51    40    46   am
    52    19    18   ar
    53    19    17   ar
    54    27    29   ar
    55    27    25   ar
    56    74    75    1
    57    29    28   ar
    58    18    16   ar
    59    22    21    1
    60    17    15   ar
    61    46    47    1
    62    12    11    2
    63    21    24    1
    64    21    20    1
    65    55    54    2
    66    25    24    1
    67    25    26   ar
    68    47    48    1
    69    47    50    1
    70    16    14   ar
    71    28    26   ar
    72    51    50    1
    73    15    14   ar
    74    11    20   am
    75    11    10    1
    76    48    49    2
    77    54    53    1
    78    14    13    1
    79    53    52    1
    80    53    56    1
    81   103   102    1
    82    10    13    1
    83    10     9    1
    84    56    57    1
    85    57    58    1
    86   102    99    1
    87     4     3    2
    88   132   130    1
    89   131   130    1
    90     8     6    1
    91    58    59   ar
    92    58    60   ar
    93   118   116   ar
    94   118   117   ar
    95    99    98    1
    96    99   100    1
    97     6     7    1
    98     6     5    1
    99   116   114   ar
   100     3     2    1
   101   130   127    1
   102   117   115   ar
   103     2     5    1
   104     2     1    1
   105   114   115   ar
   106   114   113    1
   107   100   104   am
   108   100   101    2
   109   104   105    1
   110   127   128    1
   111   127   126    1
   112   113   110    1
   113   133   128   am
   114   133   134    1
   115   128   129    2
   116   134   135    1
   117   124   123    1
   118   124   125    1
   119   123   120    1
   120   108   105    1
   121   105   106    1
   122   112   111    2
   123   110   109    1
   124   110   111    1
   125   120   119    1
   126   120   121    1
   127   135   137   am
   128   135   136    2
   129   125   119    1
   130   106   107    2
   131   137   138    1
   132   121   122    2
   133   140   139    2
   134   139   138    1
   135   138   141    1
   136   141   142    1
   137   144   143   ar
   138   142   143    1
   139   143   145   ar
