@<TRIPOS>MOLECULE
tmp/2k3vA00.pdb
 162 157 0 0 0
SMALL
GASTEIGER

@<TRIPOS>ATOM
      1  N          8.6560   -3.7380    1.7810 N.3     5  LEU5       -0.1231
      2  CA         8.0390   -3.5470    0.4790 C.3     5  LEU5        0.1693
      3  C          8.7540   -2.4140   -0.2590 C.2     5  LEU5        0.2592
      4  O          9.0200   -2.5180   -1.4550 O.2     5  LEU5       -0.2718
      5  CB         6.5310   -3.3300    0.6270 C.3     5  LEU5        0.0284
      6  CG         5.6640   -3.8390   -0.5260 C.3     5  LEU5        0.0019
      7  CD1        5.0390   -5.1930   -0.1850 C.3     5  LEU5        0.0001
      8  CD2        4.6080   -2.8020   -0.9160 C.3     5  LEU5        0.0001
      9  N          9.0450   -1.3570    0.4860 N.am    6  ALA6       -0.1966
     10  CA         9.7240   -0.2050   -0.0830 C.3     6  ALA6        0.1728
     11  C         11.0660   -0.6480   -0.6700 C.2     6  ALA6        0.2616
     12  O         11.5580   -0.0490   -1.6240 O.2     6  ALA6       -0.2715
     13  CB         9.8850    0.8730    0.9900 C.3     6  ALA6        0.0334
     14  N         11.6190   -1.6950   -0.0750 N.am    7  GLU7       -0.1977
     15  CA        12.8940   -2.2260   -0.5270 C.3     7  GLU7        0.1602
     16  C         12.7150   -2.9900   -1.8410 C.2     7  GLU7        0.2287
     17  O         13.3470   -2.6630   -2.8440 O.2     7  GLU7       -0.2864
     18  CB        13.5280   -3.1160    0.5430 C.3     7  GLU7        0.0415
     19  CG        15.0130   -3.3450    0.2560 C.3     7  GLU7        0.1163
     20  CD        15.6420   -4.2570    1.3120 C.2     7  GLU7        0.3649
     21  OE1       15.1090   -4.3740    2.4260 O.co2   7  GLU7       -0.2457
     22  OE2       16.7220   -4.8570    0.9420 O.co2   7  GLU7       -0.2457
     23  N         10.7040   -2.8050   -3.9870 N.3     9  HIS9       -0.1226
     24  CA        10.4320   -1.8760   -5.0710 C.3     9  HIS9        0.1752
     25  C         11.7150   -1.1290   -5.4410 C.2     9  HIS9        0.2595
     26  O         11.9700   -0.8700   -6.6160 O.2     9  HIS9       -0.2718
     27  CB         9.2830   -0.9350   -4.7050 C.3     9  HIS9        0.0759
     28  CG         7.9110   -1.5320   -4.9110 C.ar    9  HIS9        0.0818
     29  ND1        7.2740   -2.2980   -3.9510 N.ar    9  HIS9       -0.2268
     30  CD2        7.0620   -1.4660   -5.9770 C.ar    9  HIS9        0.1154
     31  CE1        6.0960   -2.6720   -4.4270 C.ar    9  HIS9        0.1986
     32  NE2        5.9670   -2.1560   -5.6840 N.ar    9  HIS9       -0.2212
     33  N         12.4890   -0.8040   -4.4160 N.am   10  VAL10      -0.1980
     34  CA        13.7390   -0.0920   -4.6180 C.3    10  VAL10       0.1595
     35  C         14.6240   -0.8870   -5.5800 C.2    10  VAL10       0.2287
     36  O         15.0480   -0.3680   -6.6120 O.2    10  VAL10      -0.2864
     37  CB        14.4120    0.1780   -3.2710 C.3    10  VAL10       0.0276
     38  CG1       15.9240    0.3430   -3.4360 C.3    10  VAL10       0.0022
     39  CG2       13.7990    1.4010   -2.5860 C.3    10  VAL10       0.0022
     40  N         14.4150    2.1940   -7.2350 N.3    14  GLY14      -0.1210
     41  CA        15.1530    2.9830   -6.2650 C.3    14  GLY14       0.1956
     42  C         14.2050    3.6620   -5.2740 C.2    14  GLY14       0.2612
     43  O         13.0190    3.3380   -5.2230 O.2    14  GLY14      -0.2717
     44  N         14.7620    4.5920   -4.5120 N.am   15  CYS15      -0.1970
     45  CA        13.9800    5.3190   -3.5270 C.3    15  CYS15       0.1712
     46  C         13.0670    6.2990   -4.2660 C.2    15  CYS15       0.2296
     47  O         12.0950    6.7960   -3.6980 O.2    15  CYS15      -0.2864
     48  CB        14.8740    6.0290   -2.5080 C.3    15  CYS15       0.0983
     49  SG        15.8570    4.9140   -1.4410 S.3    15  CYS15      -0.0798
     50  N         11.1940    5.5290   -6.4540 N.3    17  ASN17      -0.1225
     51  CA        10.0880    4.7230   -6.9410 C.3    17  ASN17       0.1785
     52  C          8.7690    5.3240   -6.4490 C.2    17  ASN17       0.2597
     53  O          7.7260    5.1340   -7.0720 O.2    17  ASN17      -0.2718
     54  CB        10.1780    3.2890   -6.4170 C.3    17  ASN17       0.1169
     55  CG         9.4450    2.3190   -7.3450 C.2    17  ASN17       0.2627
     56  OD1       10.0300    1.4320   -7.9460 O.2    17  ASN17      -0.2716
     57  ND2        8.1360    2.5350   -7.4290 N.am   17  ASN17      -0.0877
     58  N          8.8600    6.0370   -5.3360 N.am   18  CYS18      -0.1956
     59  CA         7.6870    6.6670   -4.7540 C.3    18  CYS18       0.1843
     60  C          8.1250    7.9690   -4.0800 C.2    18  CYS18       0.2625
     61  O          7.4720    8.4420   -3.1520 O.2    18  CYS18      -0.2714
     62  CB         6.9690    5.7330   -3.7780 C.3    18  CYS18       0.0997
     63  SG         7.0900    4.0030   -4.3640 S.3    18  CYS18      -0.0797
     64  N          9.2290    8.5100   -4.5730 N.am   19  HIS19      -0.1973
     65  CA         9.7630    9.7480   -4.0300 C.3    19  HIS19       0.1656
     66  C         10.3890   10.5750   -5.1550 C.2    19  HIS19       0.2291
     67  O         11.0930   10.0360   -6.0080 O.2    19  HIS19      -0.2864
     68  CB        10.7410    9.4640   -2.8890 C.3    19  HIS19       0.0771
     69  CG        10.1180    8.7630   -1.7060 C.ar   19  HIS19       0.0820
     70  ND1        8.8770    9.1080   -1.1990 N.ar   19  HIS19      -0.2267
     71  CD2       10.5760    7.7340   -0.9360 C.ar   19  HIS19       0.1154
     72  CE1        8.6110    8.3160   -0.1700 C.ar   19  HIS19       0.1986
     73  NE2        9.6650    7.4660   -0.0090 N.ar   19  HIS19      -0.2212
     74  N          9.5500   13.1280   -0.0610 N.3    24  PRO24      -0.2102
     75  CA         8.3050   12.4740    0.2780 C.3    24  PRO24       0.1504
     76  C          7.1990   13.5120    0.4000 C.2    24  PRO24       0.2576
     77  O          7.4160   14.5380    1.0430 O.2    24  PRO24      -0.2718
     78  CB         8.5710   11.7980    1.6220 C.3    24  PRO24       0.0282
     79  CG        10.0270   11.5500    1.6260 C.3    24  PRO24       0.0208
     80  CD        10.6330   12.6680    0.7820 C.3    24  PRO24       0.0893
     81  N          6.0560   13.2360   -0.2100 N.am   25  SER25      -0.1953
     82  CA         4.9370   14.1620   -0.1570 C.3    25  SER25       0.1924
     83  C          4.5210   14.3970    1.2960 C.2    25  SER25       0.2314
     84  O          4.8540   13.6060    2.1770 O.2    25  SER25      -0.2863
     85  CB         3.7510   13.6400   -0.9710 C.3    25  SER25       0.2116
     86  OG         3.0930   14.6830   -1.6850 O.3    25  SER25      -0.2180
     87  N          1.3330   14.6250    2.2550 N.3    27  ASP27      -0.1225
     88  CA        -0.0940   14.3490    2.2290 C.3    27  ASP27       0.1805
     89  C         -0.3160   12.8380    2.1450 C.2    27  ASP27       0.2598
     90  O         -0.9060   12.2430    3.0450 O.2    27  ASP27      -0.2718
     91  CB        -0.7570   14.9930    1.0110 C.3    27  ASP27       0.1424
     92  CG         0.0590   14.9250   -0.2820 C.2    27  ASP27       0.3668
     93  OD1        1.1530   14.3430   -0.3160 O.co2  27  ASP27      -0.2456
     94  OD2       -0.4800   15.5080   -1.2980 O.co2  27  ASP27      -0.2456
     95  N          0.1690   12.2610    1.0550 N.am   28  GLY28      -0.1957
     96  CA         0.0310   10.8300    0.8420 C.3    28  GLY28       0.1869
     97  C         -0.5950   10.5380   -0.5230 C.2    28  GLY28       0.2309
     98  O         -0.3670    9.4750   -1.1000 O.2    28  GLY28      -0.2863
     99  N          1.9210   10.2900   -3.4060 N.3    31  GLU31      -0.1231
    100  CA         2.5310    8.9720   -3.4520 C.3    31  GLU31       0.1699
    101  C          1.5360    7.9450   -3.9970 C.2    31  GLU31       0.2592
    102  O          1.8560    7.1920   -4.9150 O.2    31  GLU31      -0.2718
    103  CB         3.0460    8.5570   -2.0720 C.3    31  GLU31       0.0402
    104  CG         4.5430    8.8420   -1.9370 C.3    31  GLU31       0.1161
    105  CD         4.8170    9.7970   -0.7740 C.2    31  GLU31       0.3649
    106  OE1        4.0650   10.7630   -0.5730 O.co2  31  GLU31      -0.2457
    107  OE2        5.8540    9.5070   -0.0620 O.co2  31  GLU31      -0.2457
    108  N          0.3490    7.9490   -3.4080 N.am   32  PHE32      -0.1976
    109  CA        -0.6950    7.0270   -3.8220 C.3    32  PHE32       0.1639
    110  C         -0.8070    6.9760   -5.3480 C.2    32  PHE32       0.2290
    111  O         -1.2640    5.9800   -5.9070 O.2    32  PHE32      -0.2864
    112  CB        -2.0100    7.5510   -3.2440 C.3    32  PHE32       0.0560
    113  CG        -3.2570    6.8910   -3.8350 C.ar   32  PHE32      -0.0200
    114  CD1       -3.3570    5.5350   -3.8690 C.ar   32  PHE32      -0.0042
    115  CD2       -4.2660    7.6600   -4.3270 C.ar   32  PHE32      -0.0042
    116  CE1       -4.5150    4.9220   -4.4180 C.ar   32  PHE32      -0.0003
    117  CE2       -5.4230    7.0470   -4.8750 C.ar   32  PHE32      -0.0003
    118  CZ        -5.5230    5.6910   -4.9090 C.ar   32  PHE32      -0.0000
    119  N          1.5040    4.5530   -7.1560 N.3    35  CYS35      -0.1235
    120  CA         0.9640    3.2040   -7.1330 C.3    35  CYS35       0.1677
    121  C         -0.2610    3.1610   -8.0490 C.2    35  CYS35       0.2270
    122  O         -1.3110    2.6510   -7.6630 O.2    35  CYS35      -0.2867
    123  CB         0.6280    2.7540   -5.7100 C.3    35  CYS35       0.0956
    124  SG         1.6260    3.5480   -4.3980 S.3    35  CYS35      -0.0801
    125  N         -5.1270    4.7380    1.3210 N.3    57  MET57      -0.1245
    126  CA        -4.0870    4.5150    0.3320 C.3    57  MET57       0.1570
    127  C         -3.5060    3.1050    0.4550 C.2    57  MET57       0.2261
    128  O         -3.8070    2.3860    1.4070 O.2    57  MET57      -0.2867
    129  CB        -2.9710    5.5450    0.5230 C.3    57  MET57       0.0387
    130  CG        -3.4390    6.9420    0.1100 C.3    57  MET57       0.0595
    131  SD        -2.2330    8.1610    0.6060 S.3    57  MET57      -0.1393
    132  CE        -2.9350    8.6760    2.1640 C.3    57  MET57       0.0692
    133  N         -0.1130    2.0690    0.7420 N.3    59  ALA59      -0.1231
    134  CA         0.7980    2.0450    1.8740 C.3    59  ALA59       0.1694
    135  C         -0.0080    1.9440    3.1700 C.2    59  ALA59       0.2592
    136  O          0.2350    1.0590    3.9900 O.2    59  ALA59      -0.2718
    137  CB         1.6900    3.2870    1.8370 C.3    59  ALA59       0.0304
    138  N         -0.9520    2.8630    3.3160 N.am   60  ASP60      -0.1974
    139  CA        -1.7950    2.8890    4.4990 C.3    60  ASP60       0.1709
    140  C         -2.1000    1.4540    4.9340 C.2    60  ASP60       0.2293
    141  O         -2.2560    1.1820    6.1230 O.2    60  ASP60      -0.2864
    142  CB        -3.1250    3.5880    4.2120 C.3    60  ASP60       0.1436
    143  CG        -3.0130    5.0740    3.8650 C.2    60  ASP60       0.3671
    144  OD1       -1.9100    5.5970    3.6450 O.co2  60  ASP60      -0.2456
    145  OD2       -4.1340    5.7110    3.8230 O.co2  60  ASP60      -0.2456
    146  N          4.6970    0.0870    3.4870 N.3    64  PRO64      -0.2102
    147  CA         5.9510   -0.1140    2.7930 C.3    64  PRO64       0.1504
    148  C          7.1040    0.0040    3.7800 C.2    64  PRO64       0.2575
    149  O          7.8880   -0.9380    3.8920 O.2    64  PRO64      -0.2718
    150  CB         6.0060    1.0020    1.7520 C.3    64  PRO64       0.0282
    151  CG         4.5280    1.4710    1.5830 C.3    64  PRO64       0.0208
    152  CD         4.0140    1.2700    3.0070 C.3    64  PRO64       0.0893
    153  N          7.1880    1.1360    4.4630 N.am   65  HIS65      -0.1976
    154  CA         8.2520    1.3500    5.4290 C.3    65  HIS65       0.1656
    155  C          7.8890    0.6720    6.7520 C.2    65  HIS65       0.2291
    156  O          7.8170    1.3270    7.7900 O.2    65  HIS65      -0.2864
    157  CB         8.5490    2.8420    5.5890 C.3    65  HIS65       0.0771
    158  CG         9.2260    3.4660    4.3920 C.ar   65  HIS65       0.0820
    159  ND1       10.4130    2.9850    3.8670 N.ar   65  HIS65      -0.2267
    160  CD2        8.8700    4.5350    3.6240 C.ar   65  HIS65       0.1154
    161  CE1       10.7470    3.7390    2.8300 C.ar   65  HIS65       0.1986
    162  NE2        9.7900    4.6990    2.6810 N.ar   65  HIS65      -0.2212
@<TRIPOS>BOND
     1   121   122    2
     2   121   120    1
     3    56    55    2
     4    57    55   am
     5    55    54    1
     6    40    41    1
     7   119   120    1
     8   120   123    1
     9    53    52    2
    10    51    50    1
    11    51    52    1
    12    51    54    1
    13    26    25    2
    14    36    35    2
    15    52    58   am
    16    41    42    1
    17    67    66    2
    18    30    32   ar
    19    30    28   ar
    20   111   110    2
    21   123   124    1
    22    32    31   ar
    23    35    34    1
    24    25    24    1
    25    25    33   am
    26   110   109    1
    27    58    59    1
    28    42    43    2
    29    42    44   am
    30    66    65    1
    31    24    27    1
    32    24    23    1
    33   102   101    2
    34    28    27    1
    35    28    29   ar
    36   118   117   ar
    37   118   116   ar
    38   117   115   ar
    39    59    60    1
    40    59    62    1
    41    34    33    1
    42    34    37    1
    43    64    60   am
    44    64    65    1
    45    44    45    1
    46    31    29   ar
    47   116   114   ar
    48    63    62    1
    49   115   113   ar
    50    46    47    2
    51    46    45    1
    52    60    61    2
    53    65    68    1
    54   101   100    1
    55   101   108   am
    56   114   113   ar
    57   113   112    1
    58   109   108    1
    59   109   112    1
    60    45    48    1
    61   100    99    1
    62   100   103    1
    63    38    37    1
    64    37    39    1
    65    68    69    1
    66    17    16    2
    67    48    49    1
    68   103   104    1
    69   104   105    1
    70    16    15    1
    71    69    70   ar
    72    69    71   ar
    73    86    85    1
    74    12    11    2
    75     4     3    2
    76    94    92   ar
    77    70    72   ar
    78    98    97    2
    79    85    82    1
    80    71    73   ar
    81     8     6    1
    82   105   106   ar
    83   105   107   ar
    84    11    10    1
    85    11    14   am
    86    15    14    1
    87    15    18    1
    88     6     7    1
    89     6     5    1
    90    97    96    1
    91    93    92   ar
    92    92    91    1
    93     3     2    1
    94     3     9   am
    95    81    82    1
    96    81    76   am
    97    72    73   ar
    98    82    83    1
    99    10     9    1
   100    10    13    1
   101    74    75    1
   102    74    80    1
   103   130   129    1
   104   130   131    1
   105    19    18    1
   106    19    20    1
   107    75    76    1
   108    75    78    1
   109   126   127    1
   110   126   129    1
   111   126   125    1
   112    76    77    2
   113   127   128    2
   114     2     5    1
   115     2     1    1
   116   131   132    1
   117   133   134    1
   118    80    79    1
   119    96    95    1
   120    22    20   ar
   121    91    88    1
   122    95    89   am
   123    83    84    2
   124    20    21   ar
   125   151   150    1
   126   151   152    1
   127    78    79    1
   128   150   147    1
   129   137   134    1
   130   134   135    1
   131    89    88    1
   132    89    90    2
   133    88    87    1
   134   162   161   ar
   135   162   160   ar
   136   147   146    1
   137   147   148    1
   138   161   159   ar
   139   152   146    1
   140   135   138   am
   141   135   136    2
   142   138   139    1
   143   160   158   ar
   144   144   143   ar
   145   148   149    2
   146   148   153   am
   147   145   143   ar
   148   143   142    1
   149   159   158   ar
   150   142   139    1
   151   158   157    1
   152   153   154    1
   153   139   140    1
   154   140   141    2
   155   154   157    1
   156   154   155    1
   157   155   156    2
