@<TRIPOS>MOLECULE
tmp/2k3wA00.pdb
 206 195 0 0 0
SMALL
GASTEIGER

@<TRIPOS>ATOM
      1  N         13.5000   -4.4950    0.5590 N.3     4  LEU4       -0.1245
      2  CA        12.9120   -3.4980   -0.3160 C.3     4  LEU4        0.1561
      3  C         12.2680   -4.1650   -1.5260 C.2     4  LEU4        0.2260
      4  O         11.1650   -3.8020   -1.9350 O.2     4  LEU4       -0.2867
      5  CB        13.9950   -2.5080   -0.7690 C.3     4  LEU4        0.0270
      6  CG        13.3590   -1.1610   -1.1940 C.3     4  LEU4        0.0019
      7  CD1       14.3430   -0.0260   -0.9450 C.3     4  LEU4        0.0001
      8  CD2       12.9880   -1.1900   -2.6750 C.3     4  LEU4        0.0001
      9  N          8.3910   -3.6970   -2.8320 N.3     8  ILE8       -0.1245
     10  CA         7.9300   -3.3400   -4.1660 C.3     8  ILE8        0.1561
     11  C          7.0310   -4.4520   -4.7170 C.2     8  ILE8        0.2260
     12  O          6.0190   -4.2100   -5.3580 O.2     8  ILE8       -0.2867
     13  CB         9.1290   -3.1200   -5.0950 C.3     8  ILE8        0.0252
     14  CG1        9.8920   -1.8690   -4.6520 C.3     8  ILE8        0.0019
     15  CG2        8.6310   -2.9280   -6.5310 C.3     8  ILE8        0.0019
     16  CD1       11.2720   -1.8510   -5.3180 C.3     8  ILE8        0.0001
     17  N          3.6320   -4.2380   -3.0520 N.3    11  VAL11      -0.1231
     18  CA         2.9220   -3.0430   -3.4790 C.3    11  VAL11       0.1692
     19  C          2.4710   -3.1760   -4.9330 C.2    11  VAL11       0.2592
     20  O          1.3730   -2.7550   -5.2960 O.2    11  VAL11      -0.2718
     21  CB         3.8200   -1.8050   -3.2980 C.3    11  VAL11       0.0266
     22  CG1        4.7310   -1.6260   -4.5080 C.3    11  VAL11       0.0020
     23  CG2        2.9540   -0.5590   -3.1380 C.3    11  VAL11       0.0020
     24  N          3.3390   -3.7490   -5.7670 N.am   12  THR12      -0.1953
     25  CA         3.0200   -3.9070   -7.1780 C.3    12  THR12       0.1897
     26  C          1.7150   -4.6920   -7.3110 C.2    12  THR12       0.2313
     27  O          0.7680   -4.2680   -7.9860 O.2    12  THR12      -0.2863
     28  CB         4.1690   -4.6550   -7.8800 C.3    12  THR12       0.1794
     29  OG1        5.2710   -3.7740   -8.0610 O.3    12  THR12      -0.2208
     30  CG2        3.6990   -5.1750   -9.2410 C.3    12  THR12       0.0378
     31  N         -1.3860   -2.8030   -6.2860 N.3    15  THR15      -0.1218
     32  CA        -1.9280   -1.9150   -7.3020 C.3    15  THR15       0.1862
     33  C         -2.7730   -2.6930   -8.2990 C.2    15  THR15       0.2287
     34  O         -3.8360   -2.2310   -8.7240 O.2    15  THR15      -0.2866
     35  CB        -0.7860   -1.1970   -8.0380 C.3    15  THR15       0.1770
     36  OG1        0.0930   -2.1620   -8.5970 O.3    15  THR15      -0.2211
     37  CG2        0.0020   -0.3060   -7.0660 C.3    15  THR15       0.0375
     38  N         -6.0500   -3.4090   -6.7020 N.3    18  ASP18      -0.1225
     39  CA        -6.8660   -2.2070   -6.6270 C.3    18  ASP18       0.1805
     40  C         -7.5920   -1.9940   -7.9520 C.2    18  ASP18       0.2597
     41  O         -8.7710   -1.6390   -7.9740 O.2    18  ASP18      -0.2718
     42  CB        -5.9820   -0.9960   -6.3190 C.3    18  ASP18       0.1424
     43  CG        -6.8450    0.1780   -5.8690 C.2    18  ASP18       0.3668
     44  OD1       -8.0570    0.0300   -5.8640 O.co2  18  ASP18      -0.2456
     45  OD2       -6.2840    1.2090   -5.5400 O.co2  18  ASP18      -0.2456
     46  N         -6.8850   -2.2250   -9.0540 N.am   19  LYS19      -0.1979
     47  CA        -7.4840   -2.0700  -10.3700 C.3    19  LYS19       0.1596
     48  C         -8.5700   -3.1180  -10.5700 C.2    19  LYS19       0.2287
     49  O         -9.6220   -2.8370  -11.1500 O.2    19  LYS19      -0.2864
     50  CB        -6.4210   -2.2180  -11.4500 C.3    19  LYS19       0.0298
     51  CG        -5.4210   -1.0630  -11.3500 C.3    19  LYS19       0.0038
     52  CD        -4.2940   -1.2390  -12.4000 C.3    19  LYS19       0.0206
     53  CE        -2.9270   -1.0750  -11.7300 C.3    19  LYS19       0.1093
     54  NZ        -1.8750   -0.9960  -12.7800 N.3    19  LYS19      -0.1314
     55  N        -10.4600   -4.0470   -8.6410 N.3    21  LYS21      -0.1245
     56  CA       -11.5200   -3.7130   -7.6980 C.3    21  LYS21       0.1561
     57  C        -11.4200   -4.5660   -6.4440 C.2    21  LYS21       0.2260
     58  O        -12.4200   -4.8430   -5.7840 O.2    21  LYS21      -0.2867
     59  CB       -12.8900   -3.9230   -8.3480 C.3    21  LYS21       0.0271
     60  CG       -12.9300   -3.2230   -9.7100 C.3    21  LYS21       0.0035
     61  CD       -12.7700   -1.7130   -9.5210 C.3    21  LYS21       0.0206
     62  CE       -13.2000   -0.9870  -10.7900 C.3    21  LYS21       0.1093
     63  NZ       -13.1700    0.4830  -10.5500 N.3    21  LYS21      -0.1314
     64  N        -10.2500   -4.0270   -3.2680 N.3    23  TYR23      -0.1241
     65  CA        -9.8280   -3.1370   -2.1980 C.3    23  TYR23       0.1605
     66  C         -9.3300   -3.9400   -1.0040 C.2    23  TYR23       0.2264
     67  O         -8.3530   -3.5670   -0.3650 O.2    23  TYR23      -0.2867
     68  CB       -11.0000   -2.2630   -1.7680 C.3    23  TYR23       0.0534
     69  CG       -11.7800   -1.8250   -2.9850 C.ar   23  TYR23      -0.0201
     70  CD1      -11.1100   -1.2940   -4.0970 C.ar   23  TYR23      -0.0009
     71  CD2      -13.1800   -1.9520   -3.0010 C.ar   23  TYR23      -0.0009
     72  CE1      -11.8400   -0.8950   -5.2200 C.ar   23  TYR23       0.0417
     73  CE2      -13.9100   -1.5480   -4.1290 C.ar   23  TYR23       0.0417
     74  CZ       -13.2300   -1.0220   -5.2390 C.ar   23  TYR23       0.1957
     75  OH       -13.9500   -0.6260   -6.3530 O.3    23  TYR23      -0.2866
     76  N         -1.0700   -3.4260    0.5600 N.3    30  TYR30      -0.1241
     77  CA        -0.5810   -2.0750    0.7950 C.3    30  TYR30       0.1605
     78  C          0.0730   -1.9720    2.1710 C.2    30  TYR30       0.2264
     79  O          1.1770   -1.4340    2.3110 O.2    30  TYR30      -0.2867
     80  CB        -1.7500   -1.0710    0.7010 C.3    30  TYR30       0.0534
     81  CG        -1.9360   -0.6010   -0.7270 C.ar   30  TYR30      -0.0201
     82  CD1       -0.8830    0.0440   -1.3890 C.ar   30  TYR30      -0.0009
     83  CD2       -3.1520   -0.8150   -1.3910 C.ar   30  TYR30      -0.0009
     84  CE1       -1.0400    0.4750   -2.7060 C.ar   30  TYR30       0.0417
     85  CE2       -3.3060   -0.3870   -2.7140 C.ar   30  TYR30       0.0417
     86  CZ        -2.2510    0.2570   -3.3690 C.ar   30  TYR30       0.1957
     87  OH        -2.4010    0.6690   -4.6730 O.3    30  TYR30      -0.2866
     88  N          8.9270   -1.6760    3.4430 N.3    37  PHE37      -0.1241
     89  CA         9.6010   -0.4380    3.0670 C.3    37  PHE37       0.1605
     90  C         10.2370    0.2250    4.2960 C.2    37  PHE37       0.2264
     91  O         11.4150    0.6180    4.2760 O.2    37  PHE37      -0.2867
     92  CB         8.5830    0.5250    2.4180 C.3    37  PHE37       0.0534
     93  CG         8.4550    0.2350    0.9360 C.ar   37  PHE37      -0.0203
     94  CD1        9.5720    0.3720    0.1030 C.ar   37  PHE37      -0.0042
     95  CD2        7.2260   -0.1750    0.3960 C.ar   37  PHE37      -0.0042
     96  CE1        9.4660    0.0980   -1.2630 C.ar   37  PHE37      -0.0003
     97  CE2        7.1210   -0.4490   -0.9730 C.ar   37  PHE37      -0.0003
     98  CZ         8.2420   -0.3140   -1.8010 C.ar   37  PHE37      -0.0000
     99  N         20.6820    3.2980    3.1430 N.3    46  HIS46      -0.1241
    100  CA        20.4390    3.8880    1.8320 C.3    46  HIS46       0.1621
    101  C         20.6280    5.4030    1.8820 C.2    46  HIS46       0.2264
    102  O         20.5140    6.0190    2.9420 O.2    46  HIS46      -0.2867
    103  CB        19.0200    3.5440    1.3640 C.3    46  HIS46       0.0745
    104  CG        18.9090    2.0650    1.1360 C.ar   46  HIS46       0.0817
    105  ND1       19.5800    1.4300    0.1030 N.ar   46  HIS46      -0.2268
    106  CD2       18.2090    1.0780    1.7910 C.ar   46  HIS46       0.1154
    107  CE1       19.2740    0.1220    0.1640 C.ar   46  HIS46       0.1986
    108  NE2       18.4420   -0.1450    1.1750 N.ar   46  HIS46      -0.2212
    109  N         18.1940   10.6540   -0.3190 N.3    49  LYS49      -0.1231
    110  CA        17.1670   10.7100   -1.3510 C.3    49  LYS49       0.1693
    111  C         16.3850    9.4040   -1.3690 C.2    49  LYS49       0.2591
    112  O         15.1770    9.3920   -1.6240 O.2    49  LYS49      -0.2718
    113  CB        17.8210   10.9370   -2.7170 C.3    49  LYS49       0.0285
    114  CG        18.9110    9.8860   -2.9400 C.3    49  LYS49       0.0035
    115  CD        19.6340   10.1650   -4.2620 C.3    49  LYS49       0.0206
    116  CE        20.7740    9.1600   -4.4440 C.3    49  LYS49       0.1093
    117  NZ        20.2170    7.8450   -4.8690 N.3    49  LYS49      -0.1314
    118  N         17.0720    8.3070   -1.0770 N.am   50  ALA50      -0.1980
    119  CA        16.4140    7.0100   -1.0410 C.3    50  ALA50       0.1597
    120  C         15.3910    6.9820    0.0930 C.2    50  ALA50       0.2287
    121  O         14.2260    6.7120   -0.1320 O.2    50  ALA50      -0.2864
    122  CB        17.4450    5.9170   -0.7960 C.3    50  ALA50       0.0319
    123  N         12.4450    8.9460   -0.4900 N.3    53  SER53      -0.1202
    124  CA        11.5940    8.2950   -1.4680 C.3    53  SER53       0.2020
    125  C         10.6890    7.2780   -0.7780 C.2    53  SER53       0.2618
    126  O          9.5010    7.1930   -1.0700 O.2    53  SER53      -0.2717
    127  CB        12.4510    7.5900   -2.5270 C.3    53  SER53       0.2103
    128  OG        11.6060    6.9950   -3.4980 O.3    53  SER53      -0.2182
    129  N         11.2620    6.4950    0.1280 N.am   54  ILE54      -0.1979
    130  CA        10.4930    5.4760    0.8230 C.3    54  ILE54       0.1595
    131  C          9.4660    6.1250    1.7440 C.2    54  ILE54       0.2287
    132  O          8.3170    5.7140    1.7900 O.2    54  ILE54      -0.2864
    133  CB        11.4340    4.5980    1.6580 C.3    54  ILE54       0.0276
    134  CG1       12.6620    4.2070    0.8340 C.3    54  ILE54       0.0022
    135  CG2       10.7070    3.3230    2.0790 C.3    54  ILE54       0.0022
    136  CD1       12.2440    3.7190   -0.5390 C.3    54  ILE54       0.0001
    137  N          6.6660    7.6190   -0.4990 N.3    57  LYS57      -0.1245
    138  CA         5.8010    6.5860   -1.0430 C.3    57  LYS57       0.1561
    139  C          5.0780    5.8560    0.0800 C.2    57  LYS57       0.2260
    140  O          3.9230    5.4570   -0.0620 O.2    57  LYS57      -0.2867
    141  CB         6.6260    5.6230   -1.8870 C.3    57  LYS57       0.0271
    142  CG         7.2710    6.3770   -3.0650 C.3    57  LYS57       0.0035
    143  CD         6.2090    6.9870   -3.9930 C.3    57  LYS57       0.0206
    144  CE         5.2620    5.8930   -4.4900 C.3    57  LYS57       0.1093
    145  NZ         4.6510    6.3190   -5.7710 N.3    57  LYS57      -0.1314
    146  N          2.1430    7.5380    1.0470 N.3    60  GLN60      -0.1231
    147  CA         1.1870    7.4440   -0.0540 C.3    60  GLN60       0.1698
    148  C          0.4510    6.1060   -0.0110 C.2    60  GLN60       0.2592
    149  O         -0.7780    6.0490   -0.1400 O.2    60  GLN60      -0.2718
    150  CB         1.9130    7.5970   -1.3910 C.3    60  GLN60       0.0381
    151  CG         2.3510    9.0540   -1.5670 C.3    60  GLN60       0.0905
    152  CD         3.2110    9.1960   -2.8160 C.2    60  GLN60       0.2608
    153  OE1        2.8640    8.6710   -3.8730 O.2    60  GLN60      -0.2717
    154  NE2        4.3210    9.8830   -2.7580 N.am   60  GLN60      -0.0878
    155  N          1.2080    5.0300    0.1770 N.am   61  TYR61      -0.1976
    156  CA         0.6170    3.7020    0.2370 C.3    61  TYR61       0.1639
    157  C         -0.3290    3.5920    1.4180 C.2    61  TYR61       0.2290
    158  O         -1.4560    3.1170    1.2740 O.2    61  TYR61      -0.2864
    159  CB         1.7190    2.6410    0.3560 C.3    61  TYR61       0.0560
    160  CG         2.6260    2.6660   -0.8600 C.ar   61  TYR61      -0.0198
    161  CD1        2.0860    2.7380   -2.1480 C.ar   61  TYR61      -0.0009
    162  CD2        4.0150    2.6250   -0.6970 C.ar   61  TYR61      -0.0009
    163  CE1        2.9200    2.7780   -3.2610 C.ar   61  TYR61       0.0417
    164  CE2        4.8510    2.6630   -1.8150 C.ar   61  TYR61       0.0417
    165  CZ         4.3030    2.7460   -3.0980 C.ar   61  TYR61       0.1957
    166  OH         5.1230    2.7830   -4.2030 O.3    61  TYR61      -0.2866
    167  N         -3.5950    5.4670    1.0420 N.3    64  ARG64      -0.1245
    168  CA        -4.5140    4.7120    0.2040 C.3    64  ARG64       0.1563
    169  C         -5.1540    3.5910    1.0240 C.2    64  ARG64       0.2260
    170  O         -6.3540    3.3390    0.9380 O.2    64  ARG64      -0.2867
    171  CB        -3.7570    4.1310   -0.9890 C.3    64  ARG64       0.0307
    172  CG        -3.3310    5.2650   -1.9340 C.3    64  ARG64       0.0489
    173  CD        -4.5030    5.6960   -2.8190 C.3    64  ARG64       0.2205
    174  NE        -5.0350    4.5400   -3.5320 N.pl3  64  ARG64      -0.0865
    175  CZ        -6.0600    4.6600   -4.3630 C.cat  64  ARG64       0.5346
    176  NH1       -6.6090    5.8270   -4.5540 N.pl3  64  ARG64       0.1354
    177  NH2       -6.5190    3.6110   -4.9870 N.pl3  64  ARG64       0.1354
    178  N         -7.9520    5.1130    3.4220 N.3    67  LYS67      -0.1231
    179  CA        -9.2260    5.4130    2.7870 C.3    67  LYS67       0.1693
    180  C         -9.9180    4.1250    2.3440 C.2    67  LYS67       0.2591
    181  O        -11.1400    4.0050    2.4190 O.2    67  LYS67      -0.2718
    182  CB        -9.0100    6.3410    1.5870 C.3    67  LYS67       0.0285
    183  CG        -8.1940    5.6200    0.5320 C.3    67  LYS67       0.0035
    184  CD        -7.9070    6.5510   -0.6470 C.3    67  LYS67       0.0206
    185  CE        -9.2230    7.0370   -1.2640 C.3    67  LYS67       0.1093
    186  NZ        -8.9880    7.4650   -2.6670 N.3    67  LYS67      -0.1314
    187  N         -9.1190    3.1660    1.8750 N.am   68  LEU68      -0.1980
    188  CA        -9.6650    1.9010    1.4050 C.3    68  LEU68       0.1596
    189  C        -10.4100    1.2010    2.5200 C.2    68  LEU68       0.2287
    190  O        -11.5500    0.7740    2.3540 O.2    68  LEU68      -0.2864
    191  CB        -8.5340    1.0010    0.8770 C.3    68  LEU68       0.0297
    192  CG        -8.1170    1.4700   -0.5320 C.3    68  LEU68       0.0022
    193  CD1       -6.7390    0.9010   -0.8790 C.3    68  LEU68       0.0001
    194  CD2       -9.1440    0.9870   -1.5850 C.3    68  LEU68       0.0001
    195  N        -13.8900    3.4630    3.7970 N.3    71  TYR71      -0.1241
    196  CA       -15.1900    3.2610    3.1760 C.3    71  TYR71       0.1605
    197  C        -15.5600    1.7850    3.1940 C.2    71  TYR71       0.2264
    198  O        -16.7300    1.4350    3.2440 O.2    71  TYR71      -0.2867
    199  CB       -15.2200    3.8290    1.7540 C.3    71  TYR71       0.0534
    200  CG       -14.5500    2.8800    0.8000 C.ar   71  TYR71      -0.0201
    201  CD1      -15.2100    1.7210    0.3800 C.ar   71  TYR71      -0.0009
    202  CD2      -13.2600    3.1510    0.3400 C.ar   71  TYR71      -0.0009
    203  CE1      -14.5900    0.8390   -0.4900 C.ar   71  TYR71       0.0417
    204  CE2      -12.6500    2.2700   -0.5390 C.ar   71  TYR71       0.0417
    205  CZ       -13.3100    1.1160   -0.9520 C.ar   71  TYR71       0.1957
    206  OH       -12.6800    0.2430   -1.7980 O.3    71  TYR71      -0.2866
@<TRIPOS>BOND
     1    54    53    1
     2    52    53    1
     3    52    51    1
     4    50    51    1
     5    50    47    1
     6    49    48    2
     7    62    63    1
     8    62    61    1
     9    48    47    1
    10    47    46    1
    11    60    61    1
    12    60    59    1
    13    30    28    1
    14    46    40   am
    15    34    33    2
    16    55    56    1
    17    36    35    1
    18    59    56    1
    19    33    32    1
    20    29    28    1
    21    35    32    1
    22    35    37    1
    23    27    26    2
    24    41    40    2
    25    40    39    1
    26    28    25    1
    27    56    57    1
    28    26    25    1
    29    32    31    1
    30    25    24    1
    31    38    39    1
    32    39    42    1
    33    15    13    1
    34    57    58    2
    35    75    74    1
    36    42    43    1
    37    43    44   ar
    38    43    45   ar
    39   145   144    1
    40    24    19   am
    41    12    11    2
    42    16    14    1
    43    20    19    2
    44    74    72   ar
    45    74    73   ar
    46    72    70   ar
    47    13    14    1
    48    13    10    1
    49   177   175    1
    50    19    18    1
    51   117   116    1
    52    11    10    1
    53    87    86    1
    54   176   175    1
    55    22    21    1
    56   144   143    1
    57   116   115    1
    58   175   174    2
    59   115   114    1
    60   166   165    1
    61    10     9    1
    62    73    71   ar
    63    70    69   ar
    64   143   142    1
    65   153   152    2
    66   174   173    1
    67   128   127    1
    68    18    21    1
    69    18    17    1
    70    86    85   ar
    71    86    84   ar
    72    21    23    1
    73    64    65    1
    74   163   165   ar
    75   163   161   ar
    76   165   164   ar
    77   142   141    1
    78    71    69   ar
    79    69    68    1
    80   114   113    1
    81   173   172    1
    82   152   154   am
    83   152   151    1
    84   113   110    1
    85    85    83   ar
    86    84    82   ar
    87     8     6    1
    88   186   185    1
    89   127   124    1
    90    65    68    1
    91    65    66    1
    92   161   160   ar
    93     4     3    2
    94   172   171    1
    95   141   138    1
    96   164   162   ar
    97    98    96   ar
    98    98    97   ar
    99   206   205    1
   100   112   111    2
   101   194   192    1
   102   151   150    1
   103     3     2    1
   104   124   125    1
   105   124   123    1
   106   150   147    1
   107    83    81   ar
   108    82    81   ar
   109   111   110    1
   110   111   118   am
   111   110   109    1
   112   185   184    1
   113    96    94   ar
   114     6     7    1
   115     6     5    1
   116   118   119    1
   117   126   125    2
   118   138   137    1
   119   138   139    1
   120   119   122    1
   121   119   120    1
   122    66    67    2
   123   171   168    1
   124    97    95   ar
   125   205   204   ar
   126   205   203   ar
   127   193   192    1
   128   160   162   ar
   129   160   159    1
   130   125   129   am
   131     5     2    1
   132    81    80    1
   133   184   183    1
   134   204   202   ar
   135   136   134    1
   136   192   191    1
   137   203   201   ar
   138     2     1    1
   139   149   148    2
   140   121   120    2
   141   140   139    2
   142   147   148    1
   143   147   146    1
   144   148   155   am
   145   105   107   ar
   146   105   104   ar
   147    94    93   ar
   148   129   130    1
   149   107   108   ar
   150   155   156    1
   151   168   169    1
   152   168   167    1
   153   156   159    1
   154   156   157    1
   155   202   200   ar
   156   201   200   ar
   157    95    93   ar
   158   183   182    1
   159    76    77    1
   160    80    77    1
   161    77    78    1
   162   200   199    1
   163   130   133    1
   164   130   131    1
   165   134   133    1
   166   191   188    1
   167    93    92    1
   168   170   169    2
   169   104   103    1
   170   104   106   ar
   171   108   106   ar
   172   158   157    2
   173   103   100    1
   174   188   187    1
   175   188   189    1
   176   182   179    1
   177   133   135    1
   178   131   132    2
   179   199   196    1
   180   100   101    1
   181   100    99    1
   182   187   180   am
   183   101   102    2
   184    78    79    2
   185   180   181    2
   186   180   179    1
   187   190   189    2
   188    92    89    1
   189   179   178    1
   190    89    88    1
   191    89    90    1
   192   196   197    1
   193   196   195    1
   194   197   198    2
   195    91    90    2
