@<TRIPOS>MOLECULE
tmp/2k4hA00.pdb
 103 95 0 0 0
SMALL
GASTEIGER

@<TRIPOS>ATOM
      1  N         -9.4820   11.6930   -0.9580 N.3     1  GLY1       -0.1210
      2  CA       -10.4050   12.7480   -1.3310 C.3     1  GLY1        0.1956
      3  C         -9.8510   13.6450   -2.4200 C.2     1  GLY1        0.2611
      4  O        -10.6030   14.1860   -3.2300 O.2     1  GLY1       -0.2717
      5  N         -8.5310   13.8040   -2.4390 N.am    2  ALA2       -0.1979
      6  CA        -7.8770   14.6420   -3.4370 C.3     2  ALA2        0.1597
      7  C         -6.8250   13.8540   -4.2100 C.2     2  ALA2        0.2287
      8  O         -6.5060   12.7170   -3.8600 O.2     2  ALA2       -0.2864
      9  CB        -7.2480   15.8580   -2.7750 C.3     2  ALA2        0.0319
     10  N         -1.6260    8.0860   -4.7650 N.3     6  VAL6       -0.1231
     11  CA        -1.1050    8.3070   -3.4210 C.3     6  VAL6        0.1692
     12  C          0.3430    7.8440   -3.3110 C.2     6  VAL6        0.2591
     13  O          1.1750    8.5140   -2.6960 O.2     6  VAL6       -0.2718
     14  CB        -1.9490    7.5700   -2.3640 C.3     6  VAL6        0.0266
     15  CG1       -1.4630    7.9070   -0.9630 C.3     6  VAL6        0.0020
     16  CG2       -3.4220    7.9160   -2.5240 C.3     6  VAL6        0.0020
     17  N          0.6400    6.6970   -3.9100 N.am    7  LEU7       -0.1980
     18  CA         1.9890    6.1440   -3.8800 C.3     7  LEU7        0.1596
     19  C          2.9940    7.1290   -4.4680 C.2     7  LEU7        0.2287
     20  O          2.6850    7.8580   -5.4110 O.2     7  LEU7       -0.2864
     21  CB         2.0390    4.8250   -4.6540 C.3     7  LEU7        0.0297
     22  CG         1.7230    3.5630   -3.8490 C.3     7  LEU7        0.0022
     23  CD1        0.8990    2.5930   -4.6800 C.3     7  LEU7        0.0001
     24  CD2        3.0070    2.9010   -3.3710 C.3     7  LEU7        0.0001
     25  N          7.2430   -0.9060   -2.7740 N.3    15  LEU15      -0.1245
     26  CA         5.9800   -1.6330   -2.7060 C.3    15  LEU15       0.1561
     27  C          5.8470   -2.6030   -3.8760 C.2    15  LEU15       0.2260
     28  O          5.5360   -3.7780   -3.6870 O.2    15  LEU15      -0.2867
     29  CB         4.8050   -0.6540   -2.7040 C.3    15  LEU15       0.0270
     30  CG         3.4490   -1.2330   -2.2990 C.3    15  LEU15       0.0019
     31  CD1        2.8790   -2.0910   -3.4180 C.3    15  LEU15       0.0001
     32  CD2        3.5770   -2.0420   -1.0160 C.3    15  LEU15       0.0001
     33  N         -4.5390   -2.6340   -2.1330 N.3    33  ILE33      -0.1245
     34  CA        -4.8200   -1.5050   -1.2550 C.3    33  ILE33       0.1561
     35  C         -6.3130   -1.1960   -1.2190 C.2    33  ILE33       0.2260
     36  O         -6.8730   -0.9070   -0.1610 O.2    33  ILE33      -0.2867
     37  CB        -4.0560   -0.2440   -1.6990 C.3    33  ILE33       0.0252
     38  CG1       -2.5720   -0.5610   -1.8920 C.3    33  ILE33       0.0019
     39  CG2       -4.2370    0.8700   -0.6780 C.3    33  ILE33       0.0019
     40  CD1       -1.7500    0.6330   -2.3220 C.3    33  ILE33       0.0001
     41  N         -8.6590   -0.9120    1.9270 N.3    37  ALA37      -0.1245
     42  CA        -9.2970    0.3410    2.3120 C.3    37  ALA37       0.1562
     43  C        -10.8020    0.1620    2.4820 C.2    37  ALA37       0.2260
     44  O        -11.3760    0.5780    3.4870 O.2    37  ALA37      -0.2867
     45  CB        -9.0050    1.4200    1.2800 C.3    37  ALA37       0.0290
     46  N         -9.5720    5.5070    6.3560 N.3    47  GLU47      -0.1231
     47  CA        -8.7530    5.0410    5.2440 C.3    47  GLU47       0.1699
     48  C         -7.4300    5.8000    5.1860 C.2    47  GLU47       0.2592
     49  O         -6.4280    5.2850    4.6910 O.2    47  GLU47      -0.2718
     50  CB        -9.5060    5.2060    3.9220 C.3    47  GLU47       0.0402
     51  CG       -10.0320    6.6130    3.6930 C.3    47  GLU47       0.1161
     52  CD       -10.3810    6.8760    2.2410 C.2    47  GLU47       0.3649
     53  OE1      -11.1290    6.0660    1.6540 O.co2  47  GLU47      -0.2457
     54  OE2       -9.9070    7.8920    1.6920 O.co2  47  GLU47      -0.2457
     55  N         -7.4370    7.0270    5.6960 N.am   48  SER48      -0.1952
     56  CA        -6.2400    7.8600    5.6990 C.3    48  SER48       0.1924
     57  C         -5.1610    7.2570    6.5940 C.2    48  SER48       0.2314
     58  O         -3.9950    7.6480    6.5300 O.2    48  SER48      -0.2863
     59  CB        -6.5790    9.2750    6.1710 C.3    48  SER48       0.2116
     60  OG        -7.8710    9.6620    5.7370 O.3    48  SER48      -0.2180
     61  N         -4.0640    4.3910    6.3410 N.3    50  LEU50      -0.1231
     62  CA        -3.2610    3.5040    5.5070 C.3    50  LEU50       0.1693
     63  C         -2.0450    4.2350    4.9470 C.2    50  LEU50       0.2591
     64  O         -1.1670    3.6240    4.3380 O.2    50  LEU50      -0.2718
     65  CB        -4.1060    2.9450    4.3610 C.3    50  LEU50       0.0284
     66  CG        -4.6760    1.5420    4.5690 C.3    50  LEU50       0.0019
     67  CD1       -5.6690    1.2000    3.4700 C.3    50  LEU50       0.0001
     68  CD2       -3.5560    0.5130    4.6170 C.3    50  LEU50       0.0001
     69  N         -1.9990    5.5470    5.1600 N.am   51  GLU51      -0.1979
     70  CA        -0.8890    6.3600    4.6780 C.3    51  GLU51       0.1602
     71  C         -0.1830    7.0580    5.8360 C.2    51  GLU51       0.2287
     72  O          0.4090    8.1240    5.6650 O.2    51  GLU51      -0.2864
     73  CB        -1.3890    7.3980    3.6710 C.3    51  GLU51       0.0415
     74  CG        -2.3570    8.4060    4.2660 C.3    51  GLU51       0.1163
     75  CD        -2.4880    9.6590    3.4210 C.2    51  GLU51       0.3649
     76  OE1       -2.9960    9.5580    2.2850 O.co2  51  GLU51      -0.2457
     77  OE2       -2.0820   10.7400    3.8970 O.co2  51  GLU51      -0.2457
     78  N          1.8930   -2.3420    4.9830 N.3    84  ILE84      -0.1245
     79  CA         1.7460   -0.9000    4.8350 C.3    84  ILE84       0.1561
     80  C          2.4920   -0.1550    5.9360 C.2    84  ILE84       0.2260
     81  O          3.2590    0.7690    5.6640 O.2    84  ILE84      -0.2867
     82  CB         0.2640   -0.4790    4.8600 C.3    84  ILE84       0.0252
     83  CG1       -0.5320   -1.2770    3.8260 C.3    84  ILE84       0.0019
     84  CG2        0.1330    1.0140    4.6000 C.3    84  ILE84       0.0019
     85  CD1       -0.1260   -0.9900    2.3970 C.3    84  ILE84       0.0001
     86  N          6.2580    0.1670    5.4520 N.3    87  ILE87      -0.1231
     87  CA         6.6110    1.2010    4.4870 C.3    87  ILE87       0.1692
     88  C          6.6980    2.5690    5.1550 C.2    87  ILE87       0.2592
     89  O          7.5370    3.3950    4.7950 O.2    87  ILE87      -0.2718
     90  CB         5.5900    1.2680    3.3360 C.3    87  ILE87       0.0266
     91  CG1        5.5010   -0.0840    2.6260 C.3    87  ILE87       0.0019
     92  CG2        5.9720    2.3650    2.3530 C.3    87  ILE87       0.0020
     93  CD1        4.2170   -0.2740    1.8480 C.3    87  ILE87       0.0001
     94  N          5.8260    2.8030    6.1310 N.am   88  HIS88      -0.1976
     95  CA         5.8060    4.0710    6.8520 C.3    88  HIS88       0.1656
     96  C          6.9040    4.1100    7.9110 C.2    88  HIS88       0.2291
     97  O          7.4360    5.1980    8.1330 O.2    88  HIS88      -0.2864
     98  CB         4.4410    4.2870    7.5080 C.3    88  HIS88       0.0771
     99  CG         3.3110    4.3580    6.5280 C.ar   88  HIS88       0.0820
    100  ND1        3.3870    5.0530    5.3400 N.ar   88  HIS88      -0.2267
    101  CD2        2.0720    3.8140    6.5650 C.ar   88  HIS88       0.1154
    102  CE1        2.2430    4.9350    4.6890 C.ar   88  HIS88       0.1986
    103  NE2        1.4280    4.1870    5.4110 N.ar   88  HIS88      -0.2212
@<TRIPOS>BOND
     1    20    19    2
     2    10    11    1
     3    23    22    1
     4    21    18    1
     5    21    22    1
     6    19    18    1
     7     7     8    2
     8     7     6    1
     9    17    18    1
    10    17    12   am
    11    27    28    2
    12    27    26    1
    13    22    24    1
    14     6     9    1
    15     6     5    1
    16    11    12    1
    17    11    14    1
    18    31    30    1
    19    12    13    2
    20     4     3    2
    21    25    26    1
    22    26    29    1
    23    29    30    1
    24    16    14    1
    25     5     3   am
    26     3     2    1
    27    14    15    1
    28    40    38    1
    29    30    32    1
    30    33    34    1
    31    38    37    1
    32    37    34    1
    33    37    39    1
    34     2     1    1
    35    34    35    1
    36    35    36    2
    37    45    42    1
    38    53    52   ar
    39    54    52   ar
    40    93    91    1
    41    41    42    1
    42    52    51    1
    43    76    75   ar
    44    42    43    1
    45    92    90    1
    46    85    83    1
    47    43    44    2
    48    91    90    1
    49    90    87    1
    50    75    77   ar
    51    75    74    1
    52    67    66    1
    53    73    74    1
    54    73    70    1
    55    51    50    1
    56    83    82    1
    57    50    47    1
    58    64    63    2
    59    65    66    1
    60    65    62    1
    61    87    88    1
    62    87    86    1
    63    66    68    1
    64    84    82    1
    65    70    69    1
    66    70    71    1
    67   102   100   ar
    68   102   103   ar
    69    49    48    2
    70    89    88    2
    71    79    82    1
    72    79    78    1
    73    79    80    1
    74    63    69   am
    75    63    62    1
    76    88    94   am
    77    48    47    1
    78    48    55   am
    79    47    46    1
    80   100    99   ar
    81   103   101   ar
    82    62    61    1
    83    81    80    2
    84    72    71    2
    85    55    56    1
    86    56    59    1
    87    56    57    1
    88    60    59    1
    89    94    95    1
    90    99   101   ar
    91    99    98    1
    92    58    57    2
    93    95    98    1
    94    95    96    1
    95    96    97    2
