@<TRIPOS>MOLECULE
tmp/2k4iA01.pdb
 126 122 0 0 0
SMALL
GASTEIGER

@<TRIPOS>ATOM
      1  N          0.3120  -11.4260    2.3190 N.3    20  LEU20      -0.1231
      2  CA         1.3110  -11.7960    1.3220 C.3    20  LEU20       0.1693
      3  C          0.9790  -13.1450    0.6930 C.2    20  LEU20       0.2592
      4  O          1.3080  -13.3980   -0.4660 O.2    20  LEU20      -0.2718
      5  CB         2.7010  -11.8450    1.9590 C.3    20  LEU20       0.0284
      6  CG         3.3100  -10.4980    2.3480 C.3    20  LEU20       0.0019
      7  CD1        4.6630  -10.6950    3.0120 C.3    20  LEU20       0.0001
      8  CD2        3.4380   -9.5980    1.1270 C.3    20  LEU20       0.0001
      9  N          0.3220  -14.0060    1.4640 N.am   21  ARG21      -0.1966
     10  CA        -0.0560  -15.3290    0.9810 C.3    21  ARG21       0.1714
     11  C         -1.4900  -15.6630    1.3790 C.2    21  ARG21       0.2458
     12  O         -2.0390  -15.1160    2.3360 O.2    21  ARG21      -0.2730
     13  CB         0.8990  -16.3890    1.5340 C.3    21  ARG21       0.0347
     14  CG         1.8240  -16.9830    0.4850 C.3    21  ARG21       0.0492
     15  CD         2.1100  -18.4500    0.7620 C.3    21  ARG21       0.2205
     16  NE         2.9900  -19.0360   -0.2460 N.pl3  21  ARG21      -0.0865
     17  CZ         3.4280  -20.2890   -0.2000 C.cat  21  ARG21       0.5346
     18  NH1        3.0690  -21.0850    0.7980 N.pl3  21  ARG21       0.1354
     19  NH2        4.2260  -20.7490   -1.1550 N.pl3  21  ARG21       0.1354
     20  N         -2.1140  -16.5820    0.6270 N.am   22  PRO22      -0.2727
     21  CA        -3.4930  -17.0100    0.8820 C.3    22  PRO22       0.1402
     22  C         -3.6180  -17.8290    2.1620 C.2    22  PRO22       0.2269
     23  O         -4.6360  -17.7710    2.8510 O.2    22  PRO22      -0.2865
     24  CB        -3.8280  -17.8710   -0.3380 C.3    22  PRO22       0.0296
     25  CG        -2.5110  -18.3680   -0.8250 C.3    22  PRO22       0.0237
     26  CD        -1.5210  -17.2750   -0.5290 C.3    22  PRO22       0.0939
     27  N          1.0710  -13.1270    7.1370 N.3    26  LYS26      -0.1245
     28  CA         1.8220  -11.8980    6.9130 C.3    26  LYS26       0.1561
     29  C          1.0040  -10.9010    6.0980 C.2    26  LYS26       0.2260
     30  O          0.4440  -11.2460    5.0580 O.2    26  LYS26      -0.2867
     31  CB         3.1370  -12.2040    6.1930 C.3    26  LYS26       0.0271
     32  CG         4.1130  -13.0160    7.0270 C.3    26  LYS26       0.0035
     33  CD         5.5100  -12.9930    6.4310 C.3    26  LYS26       0.0206
     34  CE         5.9750  -14.3900    6.0470 C.3    26  LYS26       0.1093
     35  NZ         7.4540  -14.5290    6.1480 N.3    26  LYS26      -0.1314
     36  N          0.7350   -6.9360    4.2280 N.3    28  TYR28      -0.1241
     37  CA         1.5440   -5.9010    3.5940 C.3    28  TYR28       0.1605
     38  C          1.7840   -4.7360    4.5490 C.2    28  TYR28       0.2264
     39  O          0.8980   -4.3530    5.3140 O.2    28  TYR28      -0.2867
     40  CB         0.8610   -5.3990    2.3210 C.3    28  TYR28       0.0534
     41  CG         1.1820   -6.2250    1.0960 C.ar   28  TYR28      -0.0201
     42  CD1        2.4600   -6.2270    0.5510 C.ar   28  TYR28      -0.0009
     43  CD2        0.2070   -7.0030    0.4830 C.ar   28  TYR28      -0.0009
     44  CE1        2.7580   -6.9800   -0.5690 C.ar   28  TYR28       0.0417
     45  CE2        0.4960   -7.7600   -0.6360 C.ar   28  TYR28       0.0417
     46  CZ         1.7730   -7.7450   -1.1580 C.ar   28  TYR28       0.1957
     47  OH         2.0640   -8.4960   -2.2740 O.3    28  TYR28      -0.2866
     48  N          7.4980   -3.6200    3.1240 N.3    32  HIS32      -0.1241
     49  CA         7.4640   -4.1760    1.7760 C.3    32  HIS32       0.1621
     50  C          7.5500   -3.0680    0.7300 C.2    32  HIS32       0.2264
     51  O          8.1620   -3.3170   -0.3090 O.2    32  HIS32      -0.2867
     52  CB         6.1870   -4.9900    1.5690 C.3    32  HIS32       0.0745
     53  CG         5.9930   -6.0690    2.5900 C.ar   32  HIS32       0.0817
     54  ND1        4.9900   -6.0400    3.5350 N.ar   32  HIS32      -0.2268
     55  CD2        6.6810   -7.2140    2.8090 C.ar   32  HIS32       0.1154
     56  CE1        5.0700   -7.1200    4.2920 C.ar   32  HIS32       0.1986
     57  NE2        6.0870   -7.8490    3.8710 N.ar   32  HIS32      -0.2212
     58  N         11.2360   -2.1270    0.2220 N.3    35  TRP35      -0.1241
     59  CA        11.9820   -3.1600   -0.4870 C.3    35  TRP35       0.1605
     60  C         11.6490   -3.1470   -1.9750 C.2    35  TRP35       0.2264
     61  O         12.4730   -3.5230   -2.8080 O.2    35  TRP35      -0.2867
     62  CB        11.6770   -4.5370    0.1050 C.3    35  TRP35       0.0550
     63  CG        12.3860   -5.6560   -0.5980 C.ar   35  TRP35       0.0003
     64  CD1       13.5220   -6.2920   -0.1870 C.ar   35  TRP35       0.0946
     65  CD2       12.0050   -6.2680   -1.8340 C.ar   35  TRP35       0.0152
     66  NE1       13.8710   -7.2630   -1.0940 N.ar   35  TRP35      -0.2442
     67  CE2       12.9560   -7.2690   -2.1130 C.ar   35  TRP35       0.0810
     68  CE3       10.9530   -6.0700   -2.7320 C.ar   35  TRP35       0.0012
     69  CZ2       12.8840   -8.0670   -3.2520 C.ar   35  TRP35       0.0191
     70  CZ3       10.8830   -6.8620   -3.8620 C.ar   35  TRP35       0.0001
     71  CH2       11.8430   -7.8510   -4.1140 C.ar   35  TRP35       0.0015
     72  N         13.7980  -15.2820   -8.1710 N.3    72  GLU72      -0.1245
     73  CA        12.8220  -14.9670   -7.1350 C.3    72  GLU72       0.1567
     74  C         12.9180  -13.5000   -6.7240 C.2    72  GLU72       0.2260
     75  O         11.9100  -12.8610   -6.4270 O.2    72  GLU72      -0.2867
     76  CB        13.0330  -15.8650   -5.9140 C.3    72  GLU72       0.0388
     77  CG        12.0490  -17.0190   -5.8300 C.3    72  GLU72       0.1160
     78  CD        12.4960  -18.2270   -6.6310 C.2    72  GLU72       0.3649
     79  OE1       12.5350  -18.1320   -7.8760 O.co2  72  GLU72      -0.2457
     80  OE2       12.8060  -19.2660   -6.0130 O.co2  72  GLU72      -0.2457
     81  N         10.5320  -11.8550   -9.1320 N.3    75  LYS75      -0.1231
     82  CA         9.1440  -12.2620   -8.9560 C.3    75  LYS75       0.1693
     83  C          8.5430  -11.6240   -7.7080 C.2    75  LYS75       0.2592
     84  O          7.3490  -11.3280   -7.6630 O.2    75  LYS75      -0.2718
     85  CB         9.0470  -13.7870   -8.8590 C.3    75  LYS75       0.0285
     86  CG         7.6740  -14.3320   -9.2130 C.3    75  LYS75       0.0035
     87  CD         7.7700  -15.4890  -10.1930 C.3    75  LYS75       0.0206
     88  CE         8.5920  -16.6350   -9.6240 C.3    75  LYS75       0.1093
     89  NZ         8.1240  -17.0350   -8.2680 N.3    75  LYS75      -0.1314
     90  N          9.3790  -11.4120   -6.6960 N.am   76  SER76      -0.1952
     91  CA         8.9300  -10.8100   -5.4460 C.3    76  SER76       0.1924
     92  C          8.3860   -9.4050   -5.6850 C.2    76  SER76       0.2314
     93  O          7.3070   -9.0540   -5.2050 O.2    76  SER76      -0.2863
     94  CB        10.0790  -10.7610   -4.4370 C.3    76  SER76       0.2116
     95  OG         9.7680   -9.9030   -3.3530 O.3    76  SER76      -0.2180
     96  N          5.0870   -9.2260   -7.5420 N.3    79  ASN79      -0.1225
     97  CA         3.9200   -9.5230   -6.7190 C.3    79  ASN79       0.1785
     98  C          3.4350   -8.2740   -5.9900 C.2    79  ASN79       0.2597
     99  O          2.2360   -8.0900   -5.7790 O.2    79  ASN79      -0.2718
    100  CB         4.2500  -10.6230   -5.7080 C.3    79  ASN79       0.1169
    101  CG         4.1550  -12.0110   -6.3110 C.2    79  ASN79       0.2627
    102  OD1        4.2600  -12.1810   -7.5250 O.2    79  ASN79      -0.2716
    103  ND2        3.9560  -13.0120   -5.4620 N.am   79  ASN79      -0.0877
    104  N          4.3760   -7.4170   -5.6070 N.am   80  THR80      -0.1953
    105  CA         4.0460   -6.1850   -4.9000 C.3    80  THR80       0.1897
    106  C          3.4410   -5.1540   -5.8460 C.2    80  THR80       0.2313
    107  O          2.4070   -4.5560   -5.5500 O.2    80  THR80      -0.2863
    108  CB         5.2880   -5.5770   -4.2220 C.3    80  THR80       0.1794
    109  OG1        6.0350   -6.6010   -3.5570 O.3    80  THR80      -0.2208
    110  CG2        4.8870   -4.5030   -3.2220 C.3    80  THR80       0.0378
    111  N         -2.3490  -11.6700   -1.9170 N.3    96  THR96      -0.1203
    112  CA        -1.5040  -11.2700   -3.0350 C.3    96  THR96       0.1994
    113  C         -1.9370  -11.9580   -4.3250 C.2    96  THR96       0.2617
    114  O         -1.9400  -11.3470   -5.3930 O.2    96  THR96      -0.2717
    115  CB        -0.0230  -11.5970   -2.7650 C.3    96  THR96       0.1784
    116  OG1        0.4380  -10.8700   -1.6200 O.3    96  THR96      -0.2211
    117  CG2        0.8360  -11.2520   -3.9710 C.3    96  THR96       0.0376
    118  N         -2.3030  -13.2310   -4.2170 N.am   97  GLU97      -0.1979
    119  CA        -2.7380  -14.0010   -5.3770 C.3    97  GLU97       0.1602
    120  C         -3.9180  -13.3230   -6.0680 C.2    97  GLU97       0.2287
    121  O         -3.9210  -13.1470   -7.2860 O.2    97  GLU97      -0.2864
    122  CB        -3.1250  -15.4210   -4.9590 C.3    97  GLU97       0.0415
    123  CG        -2.0070  -16.4340   -5.1410 C.3    97  GLU97       0.1163
    124  CD        -2.4640  -17.6820   -5.8720 C.2    97  GLU97       0.3649
    125  OE1       -2.3970  -17.6950   -7.1200 O.co2  97  GLU97      -0.2457
    126  OE2       -2.8890  -18.6430   -5.1990 O.co2  97  GLU97      -0.2457
@<TRIPOS>BOND
     1    87    88    1
     2    87    86    1
     3    88    89    1
     4    86    85    1
     5    81    82    1
     6    82    85    1
     7    82    83    1
     8    72    73    1
     9    79    78   ar
    10    83    84    2
    11    83    90   am
    12    96    97    1
    13   102   101    2
    14   121   120    2
    15    73    74    1
    16    73    76    1
    17   125   124   ar
    18    74    75    2
    19    97    98    1
    20    97   100    1
    21    90    91    1
    22    78    80   ar
    23    78    77    1
    24   101   100    1
    25   101   103   am
    26   120   119    1
    27    98    99    2
    28    98   104   am
    29    76    77    1
    30   124   126   ar
    31   124   123    1
    32   106   107    2
    33   106   105    1
    34    92    91    1
    35    92    93    2
    36   104   105    1
    37    91    94    1
    38   114   113    2
    39   119   122    1
    40   119   118    1
    41   123   122    1
    42   105   108    1
    43    94    95    1
    44   113   118   am
    45   113   112    1
    46   108   109    1
    47   108   110    1
    48    71    70   ar
    49    71    69   ar
    50   117   115    1
    51    70    68   ar
    52    69    67   ar
    53   112   115    1
    54   112   111    1
    55    61    60    2
    56   115   116    1
    57    68    65   ar
    58    47    46    1
    59    67    65   ar
    60    67    66   ar
    61    60    59    1
    62    65    63   ar
    63    46    45   ar
    64    46    44   ar
    65    19    17    1
    66    66    64   ar
    67    25    26    1
    68    25    24    1
    69    45    43   ar
    70    63    64   ar
    71    63    62    1
    72    44    42   ar
    73    26    20    1
    74    59    62    1
    75    59    58    1
    76     4     3    2
    77    24    21    1
    78    51    50    2
    79    16    17    2
    80    16    15    1
    81    17    18    1
    82    43    41   ar
    83    14    15    1
    84    14    13    1
    85    42    41   ar
    86    20    21    1
    87    20    11   am
    88     3     2    1
    89     3     9   am
    90    50    49    1
    91    21    22    1
    92    10    11    1
    93    10     9    1
    94    10    13    1
    95    41    40    1
    96     8     6    1
    97     2     5    1
    98     2     1    1
    99    11    12    2
   100    52    49    1
   101    52    53    1
   102    49    48    1
   103     5     6    1
   104    22    23    2
   105    40    37    1
   106     6     7    1
   107    53    55   ar
   108    53    54   ar
   109    55    57   ar
   110    54    56   ar
   111    37    36    1
   112    37    38    1
   113    57    56   ar
   114    38    39    2
   115    30    29    2
   116    34    35    1
   117    34    33    1
   118    29    28    1
   119    31    28    1
   120    31    32    1
   121    33    32    1
   122    28    27    1
