@<TRIPOS>MOLECULE
tmp/2k5uA00.pdb
 105 100 0 0 0
SMALL
GASTEIGER

@<TRIPOS>ATOM
      1  N          2.8590    3.8040    3.4860 N.3    24  LEU24      -0.1231
      2  CA         3.7600    4.3580    4.4880 C.3    24  LEU24       0.1693
      3  C          3.2130    4.1410    5.8950 C.2    24  LEU24       0.2592
      4  O          1.9990    4.0690    6.1010 O.2    24  LEU24      -0.2718
      5  CB         3.9840    5.8510    4.2350 C.3    24  LEU24       0.0284
      6  CG         5.4420    6.3060    4.3140 C.3    24  LEU24       0.0019
      7  CD1        6.2460    5.7160    3.1660 C.3    24  LEU24       0.0001
      8  CD2        5.5260    7.8240    4.3000 C.3    24  LEU24       0.0001
      9  N          4.1160    4.0530    6.8630 N.am   25  ASP25      -0.1960
     10  CA         3.7220    3.8580    8.2510 C.3    25  ASP25       0.1840
     11  C          2.9630    5.0750    8.7660 C.2    25  ASP25       0.2623
     12  O          3.2370    6.2050    8.3620 O.2    25  ASP25      -0.2715
     13  CB         4.9530    3.6010    9.1230 C.3    25  ASP25       0.1450
     14  CG         4.6220    2.8080   10.3720 C.2    25  ASP25       0.3671
     15  OD1        4.1790    3.4220   11.3660 O.co2  25  ASP25      -0.2456
     16  OD2        4.8030    1.5720   10.3570 O.co2  25  ASP25      -0.2456
     17  N          2.0120    4.8410    9.6620 N.am   26  GLY26      -0.1940
     18  CA         1.2350    5.9330   10.2170 C.3    26  GLY26       0.2014
     19  C          0.1670    6.4500    9.2690 C.2    26  GLY26       0.2639
     20  O         -0.5590    7.3850    9.6060 O.2    26  GLY26      -0.2714
     21  N          0.0660    5.8560    8.0800 N.am   27  ALA27      -0.1963
     22  CA        -0.9240    6.2870    7.0980 C.3    27  ALA27       0.1728
     23  C         -2.3420    6.1540    7.6410 C.2    27  ALA27       0.2617
     24  O         -3.2370    6.9080    7.2570 O.2    27  ALA27      -0.2715
     25  CB        -0.7740    5.4850    5.8140 C.3    27  ALA27       0.0334
     26  N         -2.5410    5.1950    8.5380 N.am   28  GLY28      -0.1940
     27  CA        -3.8560    4.9860    9.1180 C.3    28  GLY28       0.2014
     28  C         -4.3030    3.5380    9.0580 C.2    28  GLY28       0.2639
     29  O         -5.4960    3.2550    8.9530 O.2    28  GLY28      -0.2714
     30  N         -3.3480    2.6170    9.1410 N.am   29  LYS29      -0.1963
     31  CA        -3.6590    1.1940    9.1130 C.3    29  LYS29       0.1728
     32  C         -4.2670    0.7600   10.4430 C.2    29  LYS29       0.2617
     33  O         -5.1080   -0.1360   10.4950 O.2    29  LYS29      -0.2715
     34  CB        -2.4010    0.3750    8.8170 C.3    29  LYS29       0.0311
     35  CG        -1.3320    0.4920    9.8910 C.3    29  LYS29       0.0038
     36  CD        -0.1800   -0.4670    9.6360 C.3    29  LYS29       0.0206
     37  CE         1.0090    0.2470    9.0120 C.3    29  LYS29       0.1093
     38  NZ         1.6540    1.1920    9.9650 N.3    29  LYS29      -0.1314
     39  N         -3.8260    1.4110   11.5150 N.am   30  THR30      -0.1937
     40  CA        -4.3150    1.1040   12.8560 C.3    30  THR30       0.2028
     41  C         -5.8130    1.3810   12.9700 C.2    30  THR30       0.2642
     42  O         -6.5720    0.5410   13.4520 O.2    30  THR30      -0.2714
     43  CB        -3.5510    1.9210   13.9020 C.3    30  THR30       0.1808
     44  OG1       -2.1700    1.6110   13.8670 O.3    30  THR30      -0.2208
     45  CG2       -4.0350    1.6870   15.3170 C.3    30  THR30       0.0379
     46  N         -6.2300    2.5620   12.5240 N.am   31  THR31      -0.1950
     47  CA        -7.6330    2.9450   12.5790 C.3    31  THR31       0.1897
     48  C         -8.4680    2.0800   11.6400 C.2    31  THR31       0.2313
     49  O         -9.5450    1.6070   12.0070 O.2    31  THR31      -0.2863
     50  CB        -7.7980    4.4250   12.2220 C.3    31  THR31       0.1794
     51  OG1       -9.1620    4.8070   12.2840 O.3    31  THR31      -0.2208
     52  CG2       -7.2880    4.7720   10.8420 C.3    31  THR31       0.0378
     53  N         -1.2330    9.1290    4.3220 N.3    92  ASP92      -0.1239
     54  CA        -1.6870   10.1570    5.2500 C.3    92  ASP92       0.1674
     55  C         -1.9160   11.4770    4.5190 C.2    92  ASP92       0.2266
     56  O         -1.0410   11.9710    3.8110 O.2    92  ASP92      -0.2867
     57  CB        -0.6710   10.3460    6.3800 C.3    92  ASP92       0.1410
     58  CG        -1.2240    9.9330    7.7290 C.2    92  ASP92       0.3668
     59  OD1       -2.1300    9.0750    7.7610 O.co2  92  ASP92      -0.2456
     60  OD2       -0.7510   10.4680    8.7540 O.co2  92  ASP92      -0.2456
     61  N         -6.5530    9.2290    4.2070 N.3   125  ASN125     -0.1225
     62  CA        -6.9980    9.1540    5.5920 C.3   125  ASN125      0.1785
     63  C         -6.5470   10.3650    6.3900 C.2   125  ASN125      0.2597
     64  O         -5.3620   10.5120    6.6910 O.2   125  ASN125     -0.2718
     65  CB        -6.4720    7.8760    6.2470 C.3   125  ASN125      0.1169
     66  CG        -7.4310    6.7120    6.0950 C.2   125  ASN125      0.2627
     67  OD1       -8.0980    6.3120    7.0490 O.2   125  ASN125     -0.2716
     68  ND2       -7.5050    6.1600    4.8890 N.am  125  ASN125     -0.0877
     69  N         -7.5220   11.2080    6.7360 N.am  126  LYS126     -0.1980
     70  CA        -7.3100   12.4320    7.5240 C.3   126  LYS126      0.1596
     71  C         -8.0230   13.6130    6.8800 C.2   126  LYS126      0.2287
     72  O         -7.5550   14.7480    6.9600 O.2   126  LYS126     -0.2864
     73  CB        -5.8240   12.7760    7.6960 C.3   126  LYS126      0.0298
     74  CG        -5.1650   12.0650    8.8680 C.3   126  LYS126      0.0038
     75  CD        -3.6480   12.1260    8.7770 C.3   126  LYS126      0.0206
     76  CE        -3.0240   12.4930   10.1130 C.3   126  LYS126      0.1093
     77  NZ        -3.2510   11.4410   11.1440 N.3   126  LYS126     -0.1314
     78  N        -10.7000   14.8220    7.8340 N.3   128  ASP128     -0.1225
     79  CA       -11.3530   15.5910    8.8880 C.3   128  ASP128      0.1805
     80  C        -10.4580   16.7410    9.3420 C.2   128  ASP128      0.2597
     81  O        -10.9380   17.7510    9.8580 O.2   128  ASP128     -0.2718
     82  CB       -11.6980   14.6900   10.0760 C.3   128  ASP128      0.1424
     83  CG       -10.4750   14.0320   10.6840 C.2   128  ASP128      0.3668
     84  OD1       -9.4850   14.7470   10.9520 O.co2 128  ASP128     -0.2456
     85  OD2      -10.5070   12.8020   10.8950 O.co2 128  ASP128     -0.2456
     86  N         -9.1530   16.5810    9.1360 N.am  129  LEU129     -0.1979
     87  CA        -8.1850   17.6030    9.5140 C.3   129  LEU129      0.1596
     88  C         -8.3740   18.8610    8.6630 C.2   129  LEU129      0.2287
     89  O         -8.5720   18.7730    7.4510 O.2   129  LEU129     -0.2864
     90  CB        -6.7590   17.0710    9.3550 C.3   129  LEU129      0.0297
     91  CG        -6.1580   16.4490   10.6170 C.3   129  LEU129      0.0022
     92  CD1       -5.1890   15.3350   10.2540 C.3   129  LEU129      0.0001
     93  CD2       -5.4610   17.5110   11.4550 C.3   129  LEU129      0.0001
     94  N        -10.6460    8.6960    8.7840 N.3   159  ALA159     -0.1231
     95  CA       -10.7060    7.4770    9.5930 C.3   159  ALA159      0.1694
     96  C        -11.4110    7.6680   10.9370 C.2   159  ALA159      0.2592
     97  O        -11.9600    6.7170   11.4920 O.2   159  ALA159     -0.2718
     98  CB        -9.3010    6.9410    9.8200 C.3   159  ALA159      0.0304
     99  N        -11.3560    8.8760   11.4800 N.am  160  THR160     -0.1953
    100  CA       -11.9490    9.1580   12.7900 C.3   160  THR160      0.1897
    101  C        -13.4780    9.2020   12.7700 C.2   160  THR160      0.2313
    102  O        -14.1330    8.5160   13.5550 O.2   160  THR160     -0.2863
    103  CB       -11.4080   10.4820   13.3290 C.3   160  THR160      0.1794
    104  OG1      -11.8920   11.5700   12.5630 O.3   160  THR160     -0.2208
    105  CG2       -9.8960   10.5550   13.3250 C.3   160  THR160      0.0378
@<TRIPOS>BOND
     1     7     6    1
     2     1     2    1
     3    56    55    2
     4    61    62    1
     5     5     6    1
     6     5     2    1
     7     8     6    1
     8    53    54    1
     9     2     3    1
    10    55    54    1
    11    68    66   am
    12    54    57    1
    13    62    65    1
    14    62    63    1
    15    25    22    1
    16     3     4    2
    17     3     9   am
    18    66    65    1
    19    66    67    2
    20    57    58    1
    21    63    64    2
    22    63    69   am
    23    69    70    1
    24     9    10    1
    25    71    72    2
    26    71    70    1
    27    22    23    1
    28    22    21    1
    29    24    23    2
    30    89    88    2
    31    70    73    1
    32    23    26   am
    33    73    74    1
    34    58    59   ar
    35    58    60   ar
    36    78    79    1
    37    21    19   am
    38    10    11    1
    39    10    13    1
    40    12    11    2
    41    26    27    1
    42    88    87    1
    43    11    17   am
    44    75    74    1
    45    75    76    1
    46    94    95    1
    47    34    31    1
    48    34    35    1
    49    79    80    1
    50    79    82    1
    51    29    28    2
    52    37    36    1
    53    37    38    1
    54    28    27    1
    55    28    30   am
    56    31    30    1
    57    31    32    1
    58    13    14    1
    59    86    80   am
    60    86    87    1
    61    19    20    2
    62    19    18    1
    63    80    81    2
    64    90    87    1
    65    90    91    1
    66    95    98    1
    67    95    96    1
    68    36    35    1
    69    17    18    1
    70    82    83    1
    71    76    77    1
    72    92    91    1
    73    16    14   ar
    74    14    15   ar
    75    32    33    2
    76    32    39   am
    77    91    93    1
    78    83    85   ar
    79    83    84   ar
    80    52    50    1
    81    96    99   am
    82    96    97    2
    83    99   100    1
    84    39    40    1
    85    48    49    2
    86    48    47    1
    87    50    51    1
    88    50    47    1
    89    46    47    1
    90    46    41   am
    91   104   103    1
    92   101   100    1
    93   101   102    2
    94   100   103    1
    95    40    41    1
    96    40    43    1
    97    41    42    2
    98   105   103    1
    99    44    43    1
   100    43    45    1
