@<TRIPOS>MOLECULE
tmp/2k74A00.pdb
 169 163 0 0 0
SMALL
GASTEIGER

@<TRIPOS>ATOM
      1  N         -5.7780   -5.7290    7.5790 N.3    25  LEU25      -0.1231
      2  CA        -5.3600   -4.3450    7.3840 C.3    25  LEU25       0.1693
      3  C         -6.5660   -3.4630    7.0640 C.2    25  LEU25       0.2591
      4  O         -6.7130   -2.3730    7.6180 O.2    25  LEU25      -0.2718
      5  CB        -4.3380   -4.2690    6.2400 C.3    25  LEU25       0.0284
      6  CG        -2.9160   -4.2630    6.8120 C.3    25  LEU25       0.0019
      7  CD1       -2.6600   -5.5700    7.5660 C.3    25  LEU25       0.0001
      8  CD2       -1.9090   -4.1300    5.6680 C.3    25  LEU25       0.0001
      9  N         -7.4220   -3.9390    6.1680 N.am   26  GLU26      -0.1979
     10  CA        -8.6080   -3.1810    5.7820 C.3    26  GLU26       0.1602
     11  C         -9.5390   -2.9870    6.9770 C.2    26  GLU26       0.2287
     12  O        -10.1550   -1.9320    7.1280 O.2    26  GLU26      -0.2864
     13  CB        -9.3550   -3.9130    4.6650 C.3    26  GLU26       0.0415
     14  CG        -8.5900   -3.7590    3.3490 C.3    26  GLU26       0.1163
     15  CD        -9.2400   -4.6140    2.2660 C.2    26  GLU26       0.3649
     16  OE1      -10.2460   -5.2390    2.5560 O.co2  26  GLU26      -0.2457
     17  OE2       -8.7220   -4.6300    1.1610 O.co2  26  GLU26      -0.2457
     18  N         -8.6290   -3.3800   10.4230 N.3    28  THR28      -0.1203
     19  CA        -7.9290   -2.6310   11.4620 C.3    28  THR28       0.1994
     20  C         -8.0930   -1.1280   11.2550 C.2    28  THR28       0.2618
     21  O         -8.2140   -0.3710   12.2180 O.2    28  THR28      -0.2717
     22  CB        -6.4400   -2.9940   11.4580 C.3    28  THR28       0.1784
     23  OG1       -5.9790   -3.0750   10.1180 O.3    28  THR28      -0.2211
     24  CG2       -6.2330   -4.3410   12.1560 C.3    28  THR28       0.0376
     25  N         -8.0900   -0.6970    9.9960 N.am   29  ALA29      -0.1965
     26  CA        -8.2340    0.7220    9.6900 C.3    29  ALA29       0.1728
     27  C         -9.6940    1.1540    9.7950 C.2    29  ALA29       0.2616
     28  O         -9.9960    2.2180   10.3360 O.2    29  ALA29      -0.2715
     29  CB        -7.7160    1.0090    8.2800 C.3    29  ALA29       0.0334
     30  N        -10.5960    0.3290    9.2720 N.am   30  LEU30      -0.1977
     31  CA       -12.0210    0.6400    9.3090 C.3    30  LEU30       0.1596
     32  C        -12.4830    0.9050   10.7390 C.2    30  LEU30       0.2287
     33  O        -13.5610    1.4570   10.9580 O.2    30  LEU30      -0.2864
     34  CB       -12.8250   -0.5230    8.7150 C.3    30  LEU30       0.0297
     35  CG       -14.2240   -0.0390    8.3090 C.3    30  LEU30       0.0022
     36  CD1      -14.1890    0.5130    6.8810 C.3    30  LEU30       0.0001
     37  CD2      -15.2100   -1.2100    8.3710 C.3    30  LEU30       0.0001
     38  N        -10.2190    2.3450   13.1250 N.3    32  PHE32      -0.1227
     39  CA        -9.5360    3.5610   13.5500 C.3    32  PHE32       0.1736
     40  C        -10.4100    4.7860   13.2840 C.2    32  PHE32       0.2595
     41  O        -10.4480    5.7200   14.0840 O.2    32  PHE32      -0.2718
     42  CB        -8.1990    3.6970   12.8000 C.3    32  PHE32       0.0547
     43  CG        -7.0610    3.8130   13.7900 C.ar   32  PHE32      -0.0202
     44  CD1       -6.9860    4.9210   14.6420 C.ar   32  PHE32      -0.0042
     45  CD2       -6.0810    2.8140   13.8540 C.ar   32  PHE32      -0.0042
     46  CE1       -5.9330    5.0310   15.5580 C.ar   32  PHE32      -0.0003
     47  CE2       -5.0270    2.9240   14.7710 C.ar   32  PHE32      -0.0003
     48  CZ        -4.9540    4.0330   15.6230 C.ar   32  PHE32      -0.0000
     49  N        -11.1110    4.7700   12.1560 N.am   33  GLN33      -0.1979
     50  CA       -11.9840    5.8810   11.7910 C.3    33  GLN33       0.1601
     51  C        -13.2260    5.9000   12.6760 C.2    33  GLN33       0.2287
     52  O        -13.6990    6.9610   13.0820 O.2    33  GLN33      -0.2864
     53  CB       -12.4060    5.7510   10.3230 C.3    33  GLN33       0.0394
     54  CG       -13.1410    7.0240    9.8710 C.3    33  GLN33       0.0908
     55  CD       -14.3890    6.6580    9.0720 C.2    33  GLN33       0.2608
     56  OE1      -14.2870    6.2360    7.9200 O.2    33  GLN33      -0.2717
     57  NE2      -15.5650    6.7960    9.6180 N.am   33  GLN33      -0.0878
     58  N        -12.1280    9.6790   12.2190 N.3    38  LEU38      -0.1231
     59  CA       -11.3150   10.1950   11.1210 C.3    38  LEU38       0.1693
     60  C        -12.1820   10.4130    9.8830 C.2    38  LEU38       0.2592
     61  O        -13.2280    9.7830    9.7300 O.2    38  LEU38      -0.2718
     62  CB       -10.1800    9.2220   10.7940 C.3    38  LEU38       0.0284
     63  CG        -9.4210    8.8620   12.0740 C.3    38  LEU38       0.0019
     64  CD1       -8.4250    7.7400   11.7760 C.3    38  LEU38       0.0001
     65  CD2       -8.6630   10.0910   12.5890 C.3    38  LEU38       0.0001
     66  N        -11.7470   11.3200    9.0100 N.am   39  LYS39      -0.1966
     67  CA       -12.5000   11.6250    7.7930 C.3    39  LYS39       0.1713
     68  C        -11.7510   11.1450    6.5460 C.2    39  LYS39       0.2458
     69  O        -10.7970   11.7880    6.1070 O.2    39  LYS39      -0.2730
     70  CB       -12.7180   13.1390    7.6930 C.3    39  LYS39       0.0311
     71  CG       -13.4730   13.6390    8.9320 C.3    39  LYS39       0.0038
     72  CD       -14.9830   13.5210    8.7000 C.3    39  LYS39       0.0206
     73  CE       -15.7170   13.6260   10.0390 C.3    39  LYS39       0.1093
     74  NZ       -15.0240   14.6160   10.9110 N.3    39  LYS39      -0.1314
     75  N        -12.1650   10.0450    5.9600 N.am   40  PRO40      -0.2727
     76  CA       -11.5090    9.5030    4.7320 C.3    40  PRO40       0.1402
     77  C        -11.3940   10.5670    3.6410 C.2    40  PRO40       0.2269
     78  O        -12.0050   11.6310    3.7340 O.2    40  PRO40      -0.2865
     79  CB       -12.4290    8.3580    4.2880 C.3    40  PRO40       0.0296
     80  CG       -13.2040    7.9630    5.5030 C.3    40  PRO40       0.0237
     81  CD       -13.2900    9.2010    6.3990 C.3    40  PRO40       0.0939
     82  N         -7.6450    8.0420   -0.4660 N.3    44  SER44      -0.1217
     83  CA        -7.7650    6.8820    0.4120 C.3    44  SER44       0.1889
     84  C         -8.6400    5.8140   -0.2340 C.2    44  SER44       0.2288
     85  O         -8.3000    4.6300   -0.2200 O.2    44  SER44      -0.2866
     86  CB        -8.3690    7.3000    1.7540 C.3    44  SER44       0.2089
     87  OG        -8.3390    6.1930    2.6460 O.3    44  SER44      -0.2183
     88  N         -6.8760    3.9540   -2.9840 N.3    47  GLU47      -0.1231
     89  CA        -5.9830    2.9440   -2.4320 C.3    47  GLU47       0.1699
     90  C         -6.7770    1.7180   -1.9860 C.2    47  GLU47       0.2592
     91  O         -6.3620    0.5820   -2.2180 O.2    47  GLU47      -0.2718
     92  CB        -5.2150    3.5250   -1.2400 C.3    47  GLU47       0.0402
     93  CG        -4.0250    4.3430   -1.7460 C.3    47  GLU47       0.1161
     94  CD        -4.5000    5.3950   -2.7420 C.2    47  GLU47       0.3649
     95  OE1       -4.6100    5.0680   -3.9120 O.co2  47  GLU47      -0.2457
     96  OE2       -4.7470    6.5140   -2.3200 O.co2  47  GLU47      -0.2457
     97  N         -7.9170    1.9530   -1.3440 N.am   48  ARG48      -0.1980
     98  CA        -8.7550    0.8580   -0.8720 C.3    48  ARG48       0.1597
     99  C         -9.2550    0.0230   -2.0450 C.2    48  ARG48       0.2287
    100  O         -9.3560   -1.1980   -1.9510 O.2    48  ARG48      -0.2864
    101  CB        -9.9480    1.4170   -0.0880 C.3    48  ARG48       0.0334
    102  CG       -10.7480    0.2670    0.5470 C.3    48  ARG48       0.0492
    103  CD       -12.0060   -0.0140   -0.2800 C.3    48  ARG48       0.2205
    104  NE       -12.7910   -1.0700    0.3450 N.pl3  48  ARG48      -0.0865
    105  CZ       -13.8070   -1.6430   -0.2930 C.cat  48  ARG48       0.5346
    106  NH1      -14.1210   -1.2570   -1.5000 N.pl3  48  ARG48       0.1354
    107  NH2      -14.4910   -2.5880    0.2890 N.pl3  48  ARG48       0.1354
    108  N         -6.3870   -2.3400   -3.5440 N.3    51  LEU51      -0.1245
    109  CA        -6.1920   -3.5690   -2.7810 C.3    51  LEU51       0.1561
    110  C         -7.4920   -4.3620   -2.7110 C.2    51  LEU51       0.2260
    111  O         -7.5110   -5.5560   -3.0120 O.2    51  LEU51      -0.2867
    112  CB        -5.7120   -3.2310   -1.3650 C.3    51  LEU51       0.0270
    113  CG        -5.5130   -4.5160   -0.5530 C.3    51  LEU51       0.0019
    114  CD1       -4.4640   -5.4070   -1.2280 C.3    51  LEU51       0.0001
    115  CD2       -5.0410   -4.1500    0.8570 C.3    51  LEU51       0.0001
    116  N         -3.5630   11.3160    9.2590 N.3   134  GLN134     -0.1245
    117  CA        -4.4320   10.8680   10.3430 C.3   134  GLN134      0.1566
    118  C         -3.6430   10.0310   11.3450 C.2   134  GLN134      0.2260
    119  O         -3.9600   10.0070   12.5340 O.2   134  GLN134     -0.2867
    120  CB        -5.5830   10.0340    9.7770 C.3   134  GLN134      0.0367
    121  CG        -6.2300   10.7810    8.6090 C.3   134  GLN134      0.0905
    122  CD        -6.7460   12.1360    9.0780 C.2   134  GLN134      0.2608
    123  OE1       -6.1400   13.1670    8.7830 O.2   134  GLN134     -0.2717
    124  NE2       -7.8360   12.1990    9.7930 N.am  134  GLN134     -0.0878
    125  N          0.4620    6.1470    6.6470 N.3   142  MET142     -0.1231
    126  CA        -0.0330    4.8550    6.1840 C.3   142  MET142      0.1687
    127  C          0.1610    4.7080    4.6700 C.2   142  MET142      0.2434
    128  O          0.7990    3.7600    4.2130 O.2   142  MET142     -0.2733
    129  CB        -1.5190    4.6980    6.5510 C.3   142  MET142      0.0400
    130  CG        -1.6770    3.6690    7.6760 C.3   142  MET142      0.0596
    131  SD        -3.4190    3.5720    8.1600 S.3   142  MET142     -0.1393
    132  CE        -3.2320    2.3480    9.4800 C.3   142  MET142      0.0692
    133  N         -0.3690    5.6200    3.8880 N.am  143  PRO143     -0.2729
    134  CA        -0.2420    5.5760    2.4030 C.3   143  PRO143      0.1401
    135  C          1.1550    5.1570    1.9430 C.2   143  PRO143      0.2269
    136  O          1.3010    4.4160    0.9700 O.2   143  PRO143     -0.2865
    137  CB        -0.5460    7.0130    1.9790 C.3   143  PRO143      0.0296
    138  CG        -1.4640    7.5480    3.0300 C.3   143  PRO143      0.0237
    139  CD        -1.1490    6.7910    4.3280 C.3   143  PRO143      0.0939
    140  N          3.5250    3.4110    3.8270 N.3   145  TRP145     -0.1227
    141  CA         3.7430    2.0280    4.2260 C.3   145  TRP145      0.1737
    142  C          2.9580    1.0870    3.3200 C.2   145  TRP145      0.2595
    143  O          3.5290    0.1990    2.6880 O.2   145  TRP145     -0.2718
    144  CB         3.3060    1.8230    5.6800 C.3   145  TRP145      0.0564
    145  CG         4.3480    2.3760    6.6000 C.ar  145  TRP145      0.0003
    146  CD1        4.1520    3.3880    7.4770 C.ar  145  TRP145      0.0946
    147  CD2        5.7370    1.9650    6.7520 C.ar  145  TRP145      0.0152
    148  NE1        5.3350    3.6270    8.1550 N.ar  145  TRP145     -0.2442
    149  CE2        6.3410    2.7740    7.7440 C.ar  145  TRP145      0.0810
    150  CE3        6.5250    0.9780    6.1320 C.ar  145  TRP145      0.0012
    151  CZ2        7.6790    2.6120    8.1050 C.ar  145  TRP145      0.0191
    152  CZ3        7.8720    0.8120    6.4940 C.ar  145  TRP145      0.0001
    153  CH2        8.4470    1.6270    7.4780 C.ar  145  TRP145      0.0015
    154  N          1.6460    1.2920    3.2510 N.am  146  LEU146     -0.1980
    155  CA         0.8030    0.4570    2.4040 C.3   146  LEU146      0.1596
    156  C          1.4790    0.2480    1.0500 C.2   146  LEU146      0.2287
    157  O          1.4310   -0.8440    0.4870 O.2   146  LEU146     -0.2864
    158  CB        -0.5610    1.1240    2.2020 C.3   146  LEU146      0.0297
    159  CG        -1.5100    0.1680    1.4630 C.3   146  LEU146      0.0022
    160  CD1       -2.1180   -0.8350    2.4480 C.3   146  LEU146      0.0001
    161  CD2       -2.6350    0.9760    0.8090 C.3   146  LEU146      0.0001
    162  N          3.8260   -2.6010    1.2300 N.3   149  ILE149     -0.1245
    163  CA         3.1740   -3.9000    1.1450 C.3   149  ILE149      0.1561
    164  C          2.5430   -4.0790   -0.2300 C.2   149  ILE149      0.2260
    165  O          2.3540   -5.2010   -0.7000 O.2   149  ILE149     -0.2867
    166  CB         2.0960   -4.0110    2.2240 C.3   149  ILE149      0.0252
    167  CG1        2.7440   -3.8790    3.6090 C.3   149  ILE149      0.0019
    168  CG2        1.3960   -5.3670    2.1090 C.3   149  ILE149      0.0019
    169  CD1        1.7100   -3.3610    4.6110 C.3   149  ILE149      0.0001
@<TRIPOS>BOND
     1    95    94   ar
     2   108   109    1
     3   111   110    2
     4    88    89    1
     5   109   110    1
     6   109   112    1
     7    94    96   ar
     8    94    93    1
     9    89    90    1
    10    89    92    1
    11    91    90    2
    12    99   100    2
    13    99    98    1
    14    90    97   am
    15    93    92    1
    16   106   105    1
    17   112   113    1
    18    97    98    1
    19   114   113    1
    20    98   101    1
    21   165   164    2
    22   113   115    1
    23    82    83    1
    24   105   107    1
    25   105   104    2
    26   103   104    1
    27   103   102    1
    28    84    85    2
    29    84    83    1
    30   164   163    1
    31   101   102    1
    32    83    86    1
    33   157   156    2
    34   161   159    1
    35   136   135    2
    36   156   155    1
    37   163   162    1
    38   163   166    1
    39    17    15   ar
    40   159   158    1
    41   159   160    1
    42    86    87    1
    43   135   134    1
    44   137   134    1
    45   137   138    1
    46   168   166    1
    47   158   155    1
    48   166   167    1
    49    15    16   ar
    50    15    14    1
    51   134   133    1
    52   155   154    1
    53   143   142    2
    54   138   139    1
    55   154   142   am
    56   142   141    1
    57    14    13    1
    58   167   169    1
    59    77    78    2
    60    77    76    1
    61   140   141    1
    62   133   139    1
    63   133   127   am
    64   128   127    2
    65   141   144    1
    66    79    76    1
    67    79    80    1
    68    13    10    1
    69   127   126    1
    70    76    75    1
    71    80    81    1
    72     8     6    1
    73   144   145    1
    74    10     9    1
    75    10    11    1
    76    75    81    1
    77    75    68   am
    78    69    68    2
    79   150   152   ar
    80   150   147   ar
    81     9     3   am
    82   126   129    1
    83   126   125    1
    84     5     6    1
    85     5     2    1
    86   152   153   ar
    87    68    67    1
    88   129   130    1
    89   145   147   ar
    90   145   146   ar
    91   147   149   ar
    92     6     7    1
    93    36    35    1
    94    11    12    2
    95     3     2    1
    96     3     4    2
    97     2     1    1
    98   146   148   ar
    99   153   151   ar
   100   130   131    1
   101    70    67    1
   102    70    71    1
   103   149   151   ar
   104   149   148   ar
   105    67    66    1
   106    56    55    2
   107   131   132    1
   108    29    26    1
   109    35    37    1
   110    35    34    1
   111   121   122    1
   112   121   120    1
   113    72    71    1
   114    72    73    1
   115    34    31    1
   116   123   122    2
   117    66    60   am
   118    55    57   am
   119    55    54    1
   120   122   124   am
   121   116   117    1
   122    30    31    1
   123    30    27   am
   124    31    32    1
   125    26    27    1
   126    26    25    1
   127    61    60    2
   128   120   117    1
   129    27    28    2
   130    54    53    1
   131    60    59    1
   132    25    20   am
   133    73    74    1
   134    23    22    1
   135    53    50    1
   136   117   118    1
   137    18    19    1
   138    32    33    2
   139    62    59    1
   140    62    63    1
   141    59    58    1
   142    20    19    1
   143    20    21    2
   144   118   119    2
   145    22    19    1
   146    22    24    1
   147    64    63    1
   148    50    49    1
   149    50    51    1
   150    63    65    1
   151    49    40   am
   152    51    52    2
   153    42    39    1
   154    42    43    1
   155    38    39    1
   156    40    39    1
   157    40    41    2
   158    43    45   ar
   159    43    44   ar
   160    45    47   ar
   161    44    46   ar
   162    47    48   ar
   163    46    48   ar
