@<TRIPOS>MOLECULE
tmp/2k78A00.pdb
 156 151 0 0 0
SMALL
GASTEIGER

@<TRIPOS>ATOM
      1  N        126.9210   11.9680   -3.6380 N.3    16  LYS16      -0.1245
      2  CA       128.3190   11.9790   -4.1490 C.3    16  LYS16       0.1561
      3  C        129.2460   12.6260   -3.1160 C.2    16  LYS16       0.2260
      4  O        128.9900   13.7140   -2.6370 O.2    16  LYS16      -0.2867
      5  CB       128.2620   12.8200   -5.4240 C.3    16  LYS16       0.0271
      6  CG       129.1070   12.1620   -6.5150 C.3    16  LYS16       0.0035
      7  CD       130.5910   12.3250   -6.1790 C.3    16  LYS16       0.0206
      8  CE       131.1740   10.9700   -5.7800 C.3    16  LYS16       0.1093
      9  NZ       132.5380   11.2740   -5.2660 N.3    16  LYS16      -0.1314
     10  N        126.4230    8.9470   -8.7810 N.3    24  ILE24      -0.1231
     11  CA       126.8600    7.6290   -9.3280 C.3    24  ILE24       0.1692
     12  C        126.3010    6.4790   -8.4870 C.2    24  ILE24       0.2591
     13  O        125.4330    5.7440   -8.9140 O.2    24  ILE24      -0.2718
     14  CB       128.3860    7.6570   -9.2520 C.3    24  ILE24       0.0266
     15  CG1      128.9300    8.6150  -10.3150 C.3    24  ILE24       0.0019
     16  CG2      128.9360    6.2520   -9.5030 C.3    24  ILE24       0.0020
     17  CD1      130.4370    8.7920  -10.1210 C.3    24  ILE24       0.0001
     18  N        126.8080    6.3180   -7.2960 N.am   25  ALA25      -0.1980
     19  CA       126.3320    5.2170   -6.4110 C.3    25  ALA25       0.1597
     20  C        124.8010    5.1550   -6.3890 C.2    25  ALA25       0.2287
     21  O        124.2190    4.1160   -6.1460 O.2    25  ALA25      -0.2864
     22  CB       126.8760    5.5760   -5.0300 C.3    25  ALA25       0.0319
     23  N        123.0190    2.2750   -8.2140 N.3    28  TYR28      -0.1227
     24  CA       123.2990    0.8510   -7.8630 C.3    28  TYR28       0.1736
     25  C        122.7630    0.5210   -6.4650 C.2    28  TYR28       0.2595
     26  O        123.1220   -0.4810   -5.8750 O.2    28  TYR28      -0.2718
     27  CB       124.8220    0.7320   -7.8940 C.3    28  TYR28       0.0548
     28  CG       125.3480    1.3910   -9.1470 C.ar   28  TYR28      -0.0200
     29  CD1      125.4010    0.6690  -10.3450 C.ar   28  TYR28      -0.0009
     30  CD2      125.7810    2.7210   -9.1110 C.ar   28  TYR28      -0.0009
     31  CE1      125.8870    1.2790  -11.5080 C.ar   28  TYR28       0.0417
     32  CE2      126.2680    3.3310  -10.2740 C.ar   28  TYR28       0.0417
     33  CZ       126.3200    2.6090  -11.4720 C.ar   28  TYR28       0.1957
     34  OH       126.7990    3.2100  -12.6190 O.3    28  TYR28      -0.2866
     35  N        121.9050    1.3500   -5.9310 N.am   29  PHE29      -0.1976
     36  CA       121.3490    1.0810   -4.5740 C.3    29  PHE29       0.1639
     37  C        119.8240    1.2250   -4.5890 C.2    29  PHE29       0.2290
     38  O        119.2960    2.3180   -4.6430 O.2    29  PHE29      -0.2864
     39  CB       121.9790    2.1430   -3.6710 C.3    29  PHE29       0.0560
     40  CG       123.4350    1.8140   -3.4430 C.ar   29  PHE29      -0.0200
     41  CD1      123.8100    0.5170   -3.0710 C.ar   29  PHE29      -0.0042
     42  CD2      124.4100    2.8050   -3.6040 C.ar   29  PHE29      -0.0042
     43  CE1      125.1600    0.2130   -2.8610 C.ar   29  PHE29      -0.0003
     44  CE2      125.7590    2.5010   -3.3940 C.ar   29  PHE29      -0.0003
     45  CZ       126.1350    1.2050   -3.0220 C.ar   29  PHE29      -0.0000
     46  N        123.5950   -3.7750   -6.1790 N.3    49  ASN49      -0.1240
     47  CA       123.1780   -4.0040   -7.5930 C.3    49  ASN49       0.1653
     48  C        124.3890   -4.3950   -8.4430 C.2    49  ASN49       0.2266
     49  O        125.3960   -3.7170   -8.4520 O.2    49  ASN49      -0.2867
     50  CB       122.6040   -2.6640   -8.0560 C.3    49  ASN49       0.1155
     51  CG       122.0090   -2.8170   -9.4570 C.2    49  ASN49       0.2627
     52  OD1      122.6720   -2.5580  -10.4420 O.2    49  ASN49      -0.2716
     53  ND2      120.7780   -3.2280   -9.5900 N.am   49  ASN49      -0.0877
     54  N        130.3530   -5.2140  -10.5850 N.3    53  TRP53      -0.1227
     55  CA       130.7960   -3.7910  -10.5760 C.3    53  TRP53       0.1737
     56  C        131.2180   -3.3700   -9.1650 C.2    53  TRP53       0.2595
     57  O        132.3100   -2.8780   -8.9550 O.2    53  TRP53      -0.2718
     58  CB       129.5760   -2.9990  -11.0400 C.3    53  TRP53       0.0564
     59  CG       129.3510   -3.2530  -12.4970 C.ar   53  TRP53       0.0003
     60  CD1      130.0970   -4.0840  -13.2610 C.ar   53  TRP53       0.0946
     61  CD2      128.3320   -2.6920  -13.3750 C.ar   53  TRP53       0.0152
     62  NE1      129.6030   -4.0680  -14.5520 N.ar   53  TRP53      -0.2442
     63  CE2      128.5150   -3.2260  -14.6730 C.ar   53  TRP53       0.0810
     64  CE3      127.2790   -1.7820  -13.1740 C.ar   53  TRP53       0.0012
     65  CZ2      127.6830   -2.8690  -15.7350 C.ar   53  TRP53       0.0191
     66  CZ3      126.4390   -1.4210  -14.2410 C.ar   53  TRP53       0.0001
     67  CH2      126.6410   -1.9630  -15.5180 C.ar   53  TRP53       0.0015
     68  N        130.3670   -3.5630   -8.1950 N.am   54  ILE54      -0.1980
     69  CA       130.7290   -3.1740   -6.8000 C.3    54  ILE54       0.1595
     70  C        131.4170   -4.3460   -6.0960 C.2    54  ILE54       0.2287
     71  O        130.8880   -5.4370   -6.0180 O.2    54  ILE54      -0.2864
     72  CB       129.4010   -2.8370   -6.1230 C.3    54  ILE54       0.0276
     73  CG1      129.6720   -2.2320   -4.7440 C.3    54  ILE54       0.0022
     74  CG2      128.5680   -4.1090   -5.9650 C.3    54  ILE54       0.0022
     75  CD1      128.4650   -1.4020   -4.3040 C.3    54  ILE54       0.0001
     76  N        133.6650    2.6070   -0.0240 N.3    93  ILE93      -0.1245
     77  CA       133.3640    1.3660   -0.7930 C.3    93  ILE93       0.1561
     78  C        134.4870    1.0540   -1.7800 C.2    93  ILE93       0.2260
     79  O        135.1840    1.9330   -2.2470 O.2    93  ILE93      -0.2867
     80  CB       132.0720    1.6650   -1.5500 C.3    93  ILE93       0.0252
     81  CG1      132.1470    1.0220   -2.9370 C.3    93  ILE93       0.0019
     82  CG2      131.9020    3.1780   -1.6970 C.3    93  ILE93       0.0019
     83  CD1      130.7690    1.0640   -3.5960 C.3    93  ILE93       0.0001
     84  N        135.7600   -1.0270   -5.4760 N.3    95  VAL95      -0.1245
     85  CA       135.1540   -1.4860   -6.7580 C.3    95  VAL95       0.1561
     86  C        136.1850   -2.2440   -7.5980 C.2    95  VAL95       0.2260
     87  O        137.3730   -1.9980   -7.5110 O.2    95  VAL95      -0.2867
     88  CB       134.7140   -0.2120   -7.4750 C.3    95  VAL95       0.0252
     89  CG1      133.4630   -0.5050   -8.3040 C.3    95  VAL95       0.0019
     90  CG2      134.3930    0.8760   -6.4480 C.3    95  VAL95       0.0019
     91  N        136.4690   -3.9210  -11.6800 N.3    97  ILE97      -0.1245
     92  CA       135.8310   -4.3260  -12.9670 C.3    97  ILE97       0.1561
     93  C        136.8940   -4.5510  -14.0440 C.2    97  ILE97       0.2260
     94  O        137.9540   -3.9570  -14.0230 O.2    97  ILE97      -0.2867
     95  CB       134.9240   -3.1580  -13.3510 C.3    97  ILE97       0.0252
     96  CG1      134.0440   -2.7890  -12.1540 C.3    97  ILE97       0.0019
     97  CG2      134.0410   -3.5650  -14.5340 C.3    97  ILE97       0.0019
     98  CD1      133.1250   -1.6250  -12.5280 C.3    97  ILE97       0.0001
     99  N        133.4440   -2.6100  -22.4770 N.3   101  VAL101     -0.1245
    100  CA       132.0520   -2.0750  -22.4810 C.3   101  VAL101      0.1561
    101  C        131.5890   -1.8090  -23.9150 C.2   101  VAL101      0.2260
    102  O        131.7950   -0.7400  -24.4550 O.2   101  VAL101     -0.2867
    103  CB       132.1270   -0.7700  -21.6910 C.3   101  VAL101      0.0252
    104  CG1      130.7380   -0.1310  -21.6280 C.3   101  VAL101      0.0019
    105  CG2      132.6160   -1.0620  -20.2710 C.3   101  VAL101      0.0019
    106  N        137.2730   -1.6040  -20.3520 N.3   106  PHE106     -0.1241
    107  CA       137.1120   -0.6840  -19.1890 C.3   106  PHE106      0.1605
    108  C        137.7790   -1.2760  -17.9440 C.2   106  PHE106      0.2264
    109  O        137.4270   -2.3450  -17.4890 O.2   106  PHE106     -0.2867
    110  CB       135.6020   -0.5650  -18.9860 C.3   106  PHE106      0.0534
    111  CG       135.3190   -0.0290  -17.6030 C.ar  106  PHE106     -0.0203
    112  CD1      136.0510    1.0590  -17.1090 C.ar  106  PHE106     -0.0042
    113  CD2      134.3230   -0.6170  -16.8150 C.ar  106  PHE106     -0.0042
    114  CE1      135.7870    1.5560  -15.8270 C.ar  106  PHE106     -0.0003
    115  CE2      134.0590   -0.1200  -15.5330 C.ar  106  PHE106     -0.0003
    116  CZ       134.7910    0.9670  -15.0390 C.ar  106  PHE106     -0.0000
    117  N        138.7860   -1.0400  -13.8310 N.3   108  TYR108     -0.1241
    118  CA       138.3060   -0.3640  -12.5920 C.3   108  TYR108      0.1605
    119  C        138.7510   -1.1550  -11.3580 C.2   108  TYR108      0.2264
    120  O        138.4250   -2.3160  -11.2050 O.2   108  TYR108     -0.2867
    121  CB       136.7820   -0.3720  -12.7120 C.3   108  TYR108      0.0534
    122  CG       136.2080    0.8410  -12.0220 C.ar  108  TYR108     -0.0201
    123  CD1      136.6390    2.1240  -12.3810 C.ar  108  TYR108     -0.0009
    124  CD2      135.2370    0.6830  -11.0260 C.ar  108  TYR108     -0.0009
    125  CE1      136.0990    3.2480  -11.7450 C.ar  108  TYR108      0.0417
    126  CE2      134.6970    1.8070  -10.3890 C.ar  108  TYR108      0.0417
    127  CZ       135.1270    3.0890  -10.7490 C.ar  108  TYR108      0.1957
    128  OH       134.5930    4.1960  -10.1220 O.3   108  TYR108     -0.2866
    129  N        136.8460    3.7440   -3.6350 N.3   112  TYR112     -0.1227
    130  CA       136.0950    5.0330   -3.6380 C.3   112  TYR112      0.1736
    131  C        135.2320    5.1460   -2.3790 C.2   112  TYR112      0.2595
    132  O        135.2430    4.2800   -1.5280 O.2   112  TYR112     -0.2718
    133  CB       135.2240    4.9760   -4.8930 C.3   112  TYR112      0.0548
    134  CG       136.1110    4.9370   -6.1140 C.ar  112  TYR112     -0.0200
    135  CD1      137.0670    5.9390   -6.3190 C.ar  112  TYR112     -0.0009
    136  CD2      135.9800    3.8960   -7.0410 C.ar  112  TYR112     -0.0009
    137  CE1      137.8910    5.9000   -7.4520 C.ar  112  TYR112      0.0417
    138  CE2      136.8050    3.8570   -8.1720 C.ar  112  TYR112      0.0417
    139  CZ       137.7590    4.8590   -8.3760 C.ar  112  TYR112      0.1957
    140  OH       138.5720    4.8200   -9.4910 O.3   112  TYR112     -0.2866
    141  N        134.4860    6.2110   -2.2510 N.am  113  ASN113     -0.1960
    142  CA       133.6290    6.3750   -1.0420 C.3   113  ASN113      0.1819
    143  C        132.3680    7.1740   -1.3840 C.2   113  ASN113      0.2621
    144  O        132.2450    7.7280   -2.4590 O.2   113  ASN113     -0.2715
    145  CB       134.4980    7.1430   -0.0440 C.3   113  ASN113      0.1195
    146  CG       135.3660    8.1570   -0.7940 C.2   113  ASN113      0.2630
    147  OD1      134.8730    8.9090   -1.6120 O.2   113  ASN113     -0.2716
    148  ND2      136.6460    8.2100   -0.5480 N.am  113  ASN113     -0.0877
    149  N        131.4250    7.2290   -0.4820 N.am  114  ILE114     -0.1977
    150  CA       130.1690    7.9840   -0.7640 C.3   114  ILE114      0.1596
    151  C        129.4830    8.3990    0.5430 C.2   114  ILE114      0.2287
    152  O        129.7800    7.8860    1.6040 O.2   114  ILE114     -0.2864
    153  CB       129.2890    7.0030   -1.5390 C.3   114  ILE114      0.0276
    154  CG1      129.6680    5.5700   -1.1590 C.3   114  ILE114      0.0022
    155  CG2      129.4990    7.2010   -3.0400 C.3   114  ILE114      0.0022
    156  CD1      128.6600    4.5970   -1.7730 C.3   114  ILE114      0.0001
@<TRIPOS>BOND
     1   102   101    2
     2   101   100    1
     3   100    99    1
     4   100   103    1
     5   103   104    1
     6   103   105    1
     7   106   107    1
     8   107   110    1
     9   107   108    1
    10   110   111    1
    11   108   109    2
    12   111   112   ar
    13   111   113   ar
    14   112   114   ar
    15   113   115   ar
    16   114   116   ar
    17    65    67   ar
    18    65    63   ar
    19   115   116   ar
    20    67    66   ar
    21    63    62   ar
    22    63    61   ar
    23    62    60   ar
    24    97    95    1
    25    66    64   ar
    26    93    94    2
    27    93    92    1
    28   117   118    1
    29    61    64   ar
    30    61    59   ar
    31    95    92    1
    32    95    96    1
    33    60    59   ar
    34    92    91    1
    35   121   118    1
    36   121   122    1
    37    34    33    1
    38   118   119    1
    39    98    96    1
    40    59    58    1
    41   123   122   ar
    42   123   125   ar
    43   122   124   ar
    44   125   127   ar
    45    31    33   ar
    46    31    29   ar
    47    33    32   ar
    48   119   120    2
    49    58    55    1
    50   124   126   ar
    51   127   126   ar
    52   127   128    1
    53    54    55    1
    54    55    56    1
    55    52    51    2
    56    29    28   ar
    57    15    17    1
    58    15    14    1
    59    32    30   ar
    60    53    51   am
    61    16    14    1
    62   140   139    1
    63    51    50    1
    64    11    14    1
    65    11    10    1
    66    11    12    1
    67    56    57    2
    68    56    68   am
    69    28    30   ar
    70    28    27    1
    71    13    12    2
    72    12    18   am
    73    49    48    2
    74    48    47    1
    75   139   138   ar
    76   139   137   ar
    77    89    88    1
    78    23    24    1
    79    68    69    1
    80   138   136   ar
    81    50    47    1
    82    27    24    1
    83    24    25    1
    84    86    87    2
    85    86    85    1
    86    47    46    1
    87    88    85    1
    88    88    90    1
    89   137   135   ar
    90    18    19    1
    91   136   134   ar
    92    69    72    1
    93    69    70    1
    94    85    84    1
    95     6     7    1
    96     6     5    1
    97    25    35   am
    98    25    26    2
    99    19    20    1
   100    19    22    1
   101    20    21    2
   102   135   134   ar
   103     7     8    1
   104    72    74    1
   105    72    73    1
   106   134   133    1
   107    70    71    2
   108    35    36    1
   109     8     9    1
   110     5     2    1
   111   133   130    1
   112    73    75    1
   113    38    37    2
   114    37    36    1
   115    36    39    1
   116     2     1    1
   117     2     3    1
   118    39    40    1
   119   130   129    1
   120   130   131    1
   121    42    40   ar
   122    42    44   ar
   123    83    81    1
   124    40    41   ar
   125    44    45   ar
   126     3     4    2
   127    41    43   ar
   128   155   153    1
   129    45    43   ar
   130    81    80    1
   131   144   143    2
   132   131   141   am
   133   131   132    2
   134   141   142    1
   135    79    78    2
   136    78    77    1
   137   156   154    1
   138    82    80    1
   139   147   146    2
   140    80    77    1
   141   153   154    1
   142   153   150    1
   143   143   142    1
   144   143   149   am
   145   142   145    1
   146   146   148   am
   147   146   145    1
   148    77    76    1
   149   150   149    1
   150   150   151    1
   151   151   152    2
