@<TRIPOS>MOLECULE
tmp/2k8rA00.pdb
 93 90 0 0 0
SMALL
GASTEIGER

@<TRIPOS>ATOM
      1  N         -7.4150   10.3810   -3.3340 N.3    11  ASN11      -0.1240
      2  CA        -8.6250   10.5360   -2.5340 C.3    11  ASN11       0.1653
      3  C         -8.6350   11.8840   -1.8110 C.2    11  ASN11       0.2266
      4  O         -9.1260   11.9970   -0.6880 O.2    11  ASN11      -0.2867
      5  CB        -8.7480    9.3870   -1.5290 C.3    11  ASN11       0.1155
      6  CG       -10.1690    9.2120   -1.0200 C.2    11  ASN11       0.2627
      7  OD1      -10.5170    9.6870    0.0640 O.2    11  ASN11      -0.2716
      8  ND2      -11.0060    8.5350   -1.7960 N.am   11  ASN11      -0.0877
      9  N         -7.6530    6.2990    4.0700 N.3   105  LYS105     -0.1231
     10  CA        -8.2750    7.6130    3.9810 C.3   105  LYS105      0.1693
     11  C         -7.3740    8.6380    4.6640 C.2   105  LYS105      0.2591
     12  O         -6.6090    8.2820    5.5610 O.2   105  LYS105     -0.2718
     13  CB        -9.6600    7.6010    4.6390 C.3   105  LYS105      0.0285
     14  CG       -10.6690    8.5330    3.9820 C.3   105  LYS105      0.0035
     15  CD       -11.1580    7.9910    2.6470 C.3   105  LYS105      0.0206
     16  CE       -12.4670    8.6430    2.2170 C.3   105  LYS105      0.1093
     17  NZ       -12.2840   10.0510    1.7690 N.3   105  LYS105     -0.1314
     18  N         -7.4650    9.9010    4.2490 N.am  106  LYS106     -0.1980
     19  CA        -6.6320   10.9660    4.8220 C.3   106  LYS106      0.1596
     20  C         -6.6090   10.9180    6.3520 C.2   106  LYS106      0.2287
     21  O         -5.6200   11.3060    6.9710 O.2   106  LYS106     -0.2864
     22  CB        -7.0970   12.3450    4.3410 C.3   106  LYS106      0.0298
     23  CG        -8.5920   12.5890    4.4840 C.3   106  LYS106      0.0038
     24  CD        -8.9920   13.8920    3.8140 C.3   106  LYS106      0.0206
     25  CE       -10.4980   14.0940    3.8130 C.3   106  LYS106      0.1093
     26  NZ       -10.8930   15.3220    3.0730 N.3   106  LYS106     -0.1314
     27  N         -9.1330    1.2890    5.1890 N.3   111  LYS111     -0.1245
     28  CA       -10.3990    0.5830    5.0230 C.3   111  LYS111      0.1561
     29  C        -10.2440   -0.6360    4.1140 C.2   111  LYS111      0.2260
     30  O        -10.4040   -0.5420    2.8940 O.2   111  LYS111     -0.2867
     31  CB       -11.4660    1.5350    4.4670 C.3   111  LYS111      0.0271
     32  CG       -11.7680    2.7080    5.3880 C.3   111  LYS111      0.0035
     33  CD       -12.5110    2.2590    6.6380 C.3   111  LYS111      0.0206
     34  CE       -12.2100    3.1560    7.8280 C.3   111  LYS111      0.1093
     35  NZ       -11.2980    2.5000    8.8040 N.3   111  LYS111     -0.1314
     36  N        -13.5670   -3.3870    6.5940 N.3   114  PRO114     -0.2102
     37  CA       -14.9480   -2.8910    6.5700 C.3   114  PRO114      0.1504
     38  C        -15.7210   -3.3620    5.3420 C.2   114  PRO114      0.2575
     39  O        -16.7390   -4.0450    5.4640 O.2   114  PRO114     -0.2718
     40  CB       -14.7840   -1.3700    6.5400 C.3   114  PRO114      0.0282
     41  CG       -13.4700   -1.1150    7.1890 C.3   114  PRO114      0.0208
     42  CD       -12.6050   -2.3130    6.8980 C.3   114  PRO114      0.0893
     43  N        -15.2190   -3.0040    4.1640 N.am  115  ARG115     -0.1980
     44  CA       -15.8520   -3.3690    2.9010 C.3   115  ARG115      0.1597
     45  C        -15.1700   -2.6380    1.7500 C.2   115  ARG115      0.2287
     46  O        -15.4330   -1.4560    1.5130 O.2   115  ARG115     -0.2864
     47  CB       -17.3510   -3.0350    2.9200 C.3   115  ARG115      0.0334
     48  CG       -18.0140   -3.0630    1.5480 C.3   115  ARG115      0.0492
     49  CD       -19.0830   -1.9880    1.4290 C.3   115  ARG115      0.2205
     50  NE       -18.5560   -0.6440    1.6980 N.pl3 115  ARG115     -0.0865
     51  CZ       -19.3190    0.4520    1.8140 C.cat 115  ARG115      0.5346
     52  NH1      -20.6360    0.3800    1.6230 N.pl3 115  ARG115      0.1354
     53  NH2      -18.7600    1.6230    2.1150 N.pl3 115  ARG115      0.1354
     54  N        -14.5410   -2.2380   -2.2380 N.3   117  HIS117     -0.1226
     55  CA       -15.1640   -2.4940   -3.5380 C.3   117  HIS117      0.1752
     56  C        -15.7040   -1.1830   -4.0940 C.2   117  HIS117      0.2596
     57  O        -15.2990   -0.7410   -5.1690 O.2   117  HIS117     -0.2718
     58  CB       -16.3030   -3.5210   -3.4260 C.3   117  HIS117      0.0759
     59  CG       -15.9410   -4.8900   -3.9220 C.ar  117  HIS117      0.0818
     60  ND1      -16.8080   -5.9610   -3.8810 N.ar  117  HIS117     -0.2268
     61  CD2      -14.7980   -5.3590   -4.4780 C.ar  117  HIS117      0.1154
     62  CE1      -16.2150   -7.0250   -4.3900 C.ar  117  HIS117      0.1986
     63  NE2      -14.9970   -6.6860   -4.7600 N.ar  117  HIS117     -0.2212
     64  N        -16.6080   -0.5600   -3.3380 N.am  118  TYR118     -0.1962
     65  CA       -17.1940    0.7190   -3.7290 C.3   118  TYR118      0.1771
     66  C        -16.1940    1.8430   -3.4810 C.2   118  TYR118      0.2620
     67  O        -15.3460    1.7390   -2.5900 O.2   118  TYR118     -0.2715
     68  CB       -18.4790    0.9960   -2.9390 C.3   118  TYR118      0.0574
     69  CG       -19.6760    0.1850   -3.3870 C.ar  118  TYR118     -0.0198
     70  CD1      -20.3840    0.5330   -4.5310 C.ar  118  TYR118     -0.0009
     71  CD2      -20.1090   -0.9120   -2.6550 C.ar  118  TYR118     -0.0009
     72  CE1      -21.4880   -0.1930   -4.9330 C.ar  118  TYR118      0.0417
     73  CE2      -21.2100   -1.6430   -3.0530 C.ar  118  TYR118      0.0417
     74  CZ       -21.8970   -1.2790   -4.1900 C.ar  118  TYR118      0.1957
     75  OH       -23.0000   -1.9990   -4.5840 O.3   118  TYR118     -0.2866
     76  N        -16.2910    2.9090   -4.2660 N.am  119  GLY119     -0.1954
     77  CA       -15.3910    4.0320   -4.1050 C.3   119  GLY119      0.1869
     78  C        -14.0500    3.7870   -4.7650 C.2   119  GLY119      0.2309
     79  O        -13.4360    2.7330   -4.5730 O.2   119  GLY119     -0.2863
     80  N        -11.3090    4.7560   -4.0190 N.3   121  LYS121     -0.1231
     81  CA       -10.2610    4.5250   -3.0230 C.3   121  LYS121      0.1693
     82  C         -9.8420    3.0550   -3.0040 C.2   121  LYS121      0.2591
     83  O         -8.7070    2.7360   -2.6570 O.2   121  LYS121     -0.2718
     84  CB       -10.7280    4.9550   -1.6210 C.3   121  LYS121      0.0285
     85  CG       -11.7210    4.0000   -0.9630 C.3   121  LYS121      0.0035
     86  CD       -11.0730    3.1540    0.1330 C.3   121  LYS121      0.0206
     87  CE       -10.6760    1.7730   -0.3720 C.3   121  LYS121      0.1093
     88  NZ       -10.2540    0.8590    0.7280 N.3   121  LYS121     -0.1314
     89  N        -10.7670    2.1640   -3.3620 N.am  122  ALA122     -0.1980
     90  CA       -10.4810    0.7360   -3.3760 C.3   122  ALA122      0.1597
     91  C         -9.6380    0.3510   -4.5910 C.2   122  ALA122      0.2287
     92  O         -8.8590   -0.5980   -4.5340 O.2   122  ALA122     -0.2864
     93  CB       -11.7760   -0.0650   -3.3480 C.3   122  ALA122      0.0319
@<TRIPOS>BOND
     1    57    56    2
     2    72    70   ar
     3    72    74   ar
     4    78    79    2
     5    78    77    1
     6    63    61   ar
     7    63    62   ar
     8    91    92    2
     9    91    90    1
    10    75    74    1
    11    70    69   ar
    12    61    59   ar
    13    62    60   ar
    14    76    77    1
    15    76    66   am
    16    74    73   ar
    17    56    55    1
    18    56    64   am
    19    80    81    1
    20    59    60   ar
    21    59    58    1
    22    65    66    1
    23    65    64    1
    24    65    68    1
    25    55    58    1
    26    55    54    1
    27    66    67    2
    28    69    68    1
    29    69    71   ar
    30    90    89    1
    31    90    93    1
    32    89    82   am
    33     1     2    1
    34    73    71   ar
    35    81    82    1
    36    81    84    1
    37    82    83    2
    38     2     3    1
    39     2     5    1
    40     3     4    2
    41     8     6   am
    42    84    85    1
    43     5     6    1
    44     6     7    2
    45    85    86    1
    46    87    86    1
    47    87    88    1
    48    49    48    1
    49    49    50    1
    50    46    45    2
    51    48    47    1
    52    52    51    1
    53    50    51    2
    54    45    44    1
    55    17    16    1
    56    51    53    1
    57    16    15    1
    58    15    14    1
    59    30    29    2
    60    44    47    1
    61    44    43    1
    62    26    25    1
    63    25    24    1
    64    24    23    1
    65    10     9    1
    66    10    13    1
    67    10    11    1
    68    14    13    1
    69    29    28    1
    70    43    38   am
    71    18    11   am
    72    18    19    1
    73    22    23    1
    74    22    19    1
    75    31    28    1
    76    31    32    1
    77    11    12    2
    78    19    20    1
    79    28    27    1
    80    38    39    2
    81    38    37    1
    82    32    33    1
    83    20    21    2
    84    40    37    1
    85    40    41    1
    86    37    36    1
    87    36    42    1
    88    33    34    1
    89    42    41    1
    90    34    35    1
