@<TRIPOS>MOLECULE
tmp/2ka9A00.pdb
 111 108 0 0 0
SMALL
GASTEIGER

@<TRIPOS>ATOM
      1  N        -29.4930  -15.5440    3.7120 N.3    14  GLY14      -0.1210
      2  CA       -28.4120  -14.6430    4.0440 C.3    14  GLY14       0.1956
      3  C        -27.6850  -14.1480    2.8140 C.2    14  GLY14       0.2612
      4  O        -27.9240  -14.6270    1.7050 O.2    14  GLY14      -0.2717
      5  N        -26.8010  -13.1840    3.0110 N.am   15  LEU15      -0.1965
      6  CA       -26.0350  -12.6130    1.9150 C.3    15  LEU15       0.1728
      7  C        -24.8040  -13.4580    1.6110 C.2    15  LEU15       0.2617
      8  O        -24.5550  -13.8210    0.4630 O.2    15  LEU15      -0.2715
      9  CB       -25.6450  -11.1790    2.2580 C.3    15  LEU15       0.0311
     10  CG       -26.7140  -10.4090    3.0400 C.3    15  LEU15       0.0022
     11  CD1      -26.4410  -10.4800    4.5360 C.3    15  LEU15       0.0001
     12  CD2      -26.7880   -8.9600    2.5780 C.3    15  LEU15       0.0001
     13  N        -24.0510  -13.7840    2.6520 N.am   16  GLY16      -0.1940
     14  CA       -22.8670  -14.6060    2.4800 C.3    16  GLY16       0.2014
     15  C        -21.5760  -13.8090    2.4340 C.2    16  GLY16       0.2639
     16  O        -21.0310  -13.5660    1.3590 O.2    16  GLY16      -0.2714
     17  N        -21.0750  -13.4230    3.6020 N.am   17  PHE17      -0.1959
     18  CA       -19.8260  -12.6720    3.6900 C.3    17  PHE17       0.1771
     19  C        -19.2900  -12.6930    5.1180 C.2    17  PHE17       0.2620
     20  O        -20.0580  -12.7810    6.0770 O.2    17  PHE17      -0.2715
     21  CB       -20.0110  -11.2290    3.2110 C.3    17  PHE17       0.0574
     22  CG       -21.1710  -10.5100    3.8370 C.ar   17  PHE17      -0.0200
     23  CD1      -21.1980  -10.2570    5.2000 C.ar   17  PHE17      -0.0042
     24  CD2      -22.2320  -10.0780    3.0590 C.ar   17  PHE17      -0.0042
     25  CE1      -22.2620   -9.5870    5.7740 C.ar   17  PHE17      -0.0003
     26  CE2      -23.2980   -9.4060    3.6260 C.ar   17  PHE17      -0.0003
     27  CZ       -23.3130   -9.1610    4.9860 C.ar   17  PHE17      -0.0000
     28  N        -17.9690  -12.6270    5.2540 N.am   18  SER18      -0.1936
     29  CA       -17.3400  -12.6540    6.5720 C.3    18  SER18       0.2055
     30  C        -16.8240  -11.2760    6.9750 C.2    18  SER18       0.2643
     31  O        -16.0660  -10.6440    6.2400 O.2    18  SER18      -0.2714
     32  CB       -16.1900  -13.6640    6.5860 C.3    18  SER18       0.2130
     33  OG       -15.0170  -13.1090    6.0170 O.3    18  SER18      -0.2179
     34  N        -17.2320  -10.8250    8.1580 N.am   19  ILE19      -0.1963
     35  CA       -16.8100   -9.5310    8.6740 C.3    19  ILE19       0.1727
     36  C        -16.0540   -9.6910    9.9880 C.2    19  ILE19       0.2616
     37  O        -16.0880  -10.7550   10.6070 O.2    19  ILE19      -0.2715
     38  CB       -18.0120   -8.5930    8.8970 C.3    19  ILE19       0.0290
     39  CG1      -19.0030   -9.2210    9.8770 C.3    19  ILE19       0.0022
     40  CG2      -18.6930   -8.2780    7.5730 C.3    19  ILE19       0.0023
     41  CD1      -19.9740   -8.2260   10.4750 C.3    19  ILE19       0.0001
     42  N        -15.3730   -8.6320   10.4120 N.am   20  ALA20      -0.1977
     43  CA       -14.6140   -8.6650   11.6550 C.3    20  ALA20       0.1597
     44  C        -14.0720   -7.2840   12.0080 C.2    20  ALA20       0.2287
     45  O        -13.8530   -6.4500   11.1290 O.2    20  ALA20      -0.2864
     46  CB       -13.4760   -9.6700   11.5490 C.3    20  ALA20       0.0319
     47  N        -12.5540   -3.4200   19.2570 N.3    25  ASN25      -0.1226
     48  CA       -11.4140   -4.2570   18.9070 C.3    25  ASN25       0.1770
     49  C        -11.2200   -4.3240   17.3940 C.2    25  ASN25       0.2439
     50  O        -11.6080   -5.3000   16.7520 O.2    25  ASN25      -0.2733
     51  CB       -11.5970   -5.6670   19.4730 C.3    25  ASN25       0.1168
     52  CG       -10.2930   -6.2670   19.9560 C.2    25  ASN25       0.2627
     53  OD1       -9.4400   -5.5700   20.5050 O.2    25  ASN25      -0.2716
     54  ND2      -10.1290   -7.5700   19.7540 N.am   25  ASN25      -0.0877
     55  N        -10.6080   -3.2820   16.8030 N.am   26  PRO26      -0.2718
     56  CA       -10.3570   -3.2270   15.3590 C.3    26  PRO26       0.1535
     57  C         -9.7290   -4.5130   14.8280 C.2    26  PRO26       0.2598
     58  O         -8.8440   -5.0910   15.4590 O.2    26  PRO26      -0.2715
     59  CB        -9.3830   -2.0570   15.2200 C.3    26  PRO26       0.0310
     60  CG        -9.7020   -1.1680   16.3710 C.3    26  PRO26       0.0237
     61  CD       -10.1100   -2.0780   17.4970 C.3    26  PRO26       0.0939
     62  N        -10.1970   -4.9580   13.6660 N.am   27  HIS27      -0.1974
     63  CA        -9.6860   -6.1770   13.0470 C.3    27  HIS27       0.1656
     64  C         -8.2510   -5.9850   12.5540 C.2    27  HIS27       0.2291
     65  O         -7.5330   -6.9580   12.3210 O.2    27  HIS27      -0.2864
     66  CB       -10.5980   -6.5990   11.8890 C.3    27  HIS27       0.0771
     67  CG       -10.0020   -7.6380   10.9870 C.ar   27  HIS27       0.0820
     68  ND1      -10.3600   -8.9690   11.0300 N.ar   27  HIS27      -0.2267
     69  CD2       -9.0700   -7.5330   10.0100 C.ar   27  HIS27       0.1154
     70  CE1       -9.6750   -9.6380   10.1180 C.ar   27  HIS27       0.1986
     71  NE2       -8.8860   -8.7880    9.4860 N.ar   27  HIS27      -0.2212
     72  N        -13.8020   -9.5780    5.2430 N.3    37  THR37      -0.1218
     73  CA       -12.5570  -10.2910    4.9870 C.3    37  THR37       0.1862
     74  C        -12.6480  -11.1490    3.7300 C.2    37  THR37       0.2287
     75  O        -11.6950  -11.2300    2.9560 O.2    37  THR37      -0.2866
     76  CB       -12.1840  -11.1610    6.1900 C.3    37  THR37       0.1770
     77  OG1      -12.8750  -10.7360    7.3510 O.3    37  THR37      -0.2211
     78  CG2      -10.7040  -11.1410    6.5050 C.3    37  THR37       0.0375
     79  N        -18.2970  -15.7850    0.3840 N.3    40  ILE40      -0.1245
     80  CA       -18.4930  -17.1670   -0.0410 C.3    40  ILE40       0.1561
     81  C        -19.2190  -17.2320   -1.3840 C.2    40  ILE40       0.2260
     82  O        -20.2870  -16.6410   -1.5420 O.2    40  ILE40      -0.2867
     83  CB       -19.3010  -17.9830    0.9920 C.3    40  ILE40       0.0252
     84  CG1      -19.0550  -17.4610    2.4130 C.3    40  ILE40       0.0019
     85  CG2      -18.9450  -19.4610    0.8930 C.3    40  ILE40       0.0019
     86  CD1      -19.7410  -18.2780    3.4880 C.3    40  ILE40       0.0001
     87  N        -18.2330   -4.2740   17.1320 N.3    70  HIS70      -0.1241
     88  CA       -18.6900   -5.4350   16.3740 C.3    70  HIS70       0.1621
     89  C        -20.1150   -5.8150   16.7520 C.2    70  HIS70       0.2264
     90  O        -20.9590   -6.0330   15.8840 O.2    70  HIS70      -0.2867
     91  CB       -17.7460   -6.6170   16.6150 C.3    70  HIS70       0.0745
     92  CG       -18.1530   -7.8660   15.8960 C.ar   70  HIS70       0.0817
     93  ND1      -17.2620   -8.6810   15.2280 N.ar   70  HIS70      -0.2268
     94  CD2      -19.3680   -8.4390   15.7480 C.ar   70  HIS70       0.1154
     95  CE1      -17.9150   -9.7010   14.7000 C.ar   70  HIS70       0.1986
     96  NE2      -19.1940   -9.5780   15.0020 N.ar   70  HIS70      -0.2212
     97  N        -23.0390   -6.6470   14.2150 N.3    74  VAL74      -0.1245
     98  CA       -23.7520   -7.9050   14.1500 C.3    74  VAL74       0.1561
     99  C        -25.2470   -7.6550   14.3080 C.2    74  VAL74       0.2260
    100  O        -26.0760   -8.3210   13.6900 O.2    74  VAL74      -0.2867
    101  CB       -23.2520   -8.8990   15.2280 C.3    74  VAL74       0.0252
    102  CG1      -24.1560   -8.9110   16.4550 C.3    74  VAL74       0.0019
    103  CG2      -23.1230  -10.2970   14.6420 C.3    74  VAL74       0.0019
    104  N        -26.7060   -6.2610   11.0090 N.3    77  LEU77      -0.1245
    105  CA       -26.9080   -7.3270   10.0440 C.3    77  LEU77       0.1561
    106  C        -27.9950   -8.2620   10.5430 C.2    77  LEU77       0.2260
    107  O        -28.6830   -8.9130    9.7560 O.2    77  LEU77      -0.2867
    108  CB       -25.6060   -8.0990    9.7970 C.3    77  LEU77       0.0270
    109  CG       -24.8350   -8.5210   11.0510 C.3    77  LEU77       0.0019
    110  CD1      -25.3290   -9.8670   11.5560 C.3    77  LEU77       0.0001
    111  CD2      -23.3430   -8.5780   10.7540 C.3    77  LEU77       0.0001
@<TRIPOS>BOND
     1    82    81    2
     2    81    80    1
     3    80    79    1
     4    80    83    1
     5     8     7    2
     6    85    83    1
     7    83    84    1
     8    16    15    2
     9     7     6    1
    10     7    13   am
    11     4     3    2
    12     6     9    1
    13     6     5    1
    14     9    10    1
    15    84    86    1
    16    15    14    1
    17    15    17   am
    18    14    13    1
    19    12    10    1
    20     3     5   am
    21     3     2    1
    22    75    74    2
    23    10    11    1
    24    24    26   ar
    25    24    22   ar
    26    21    18    1
    27    21    22    1
    28    17    18    1
    29    26    27   ar
    30    18    19    1
    31     1     2    1
    32    74    73    1
    33    22    23   ar
    34    27    25   ar
    35    73    72    1
    36    73    76    1
    37    19    28   am
    38    19    20    2
    39    23    25   ar
    40    28    29    1
    41    33    32    1
    42    76    78    1
    43    76    77    1
    44    31    30    2
    45    29    32    1
    46    29    30    1
    47    30    34   am
    48    40    38    1
    49    34    35    1
    50    35    38    1
    51    35    36    1
    52    38    39    1
    53    71    69   ar
    54    71    70   ar
    55   107   106    2
    56   108   105    1
    57   108   109    1
    58    39    41    1
    59    36    42   am
    60    36    37    2
    61    69    67   ar
    62   105   106    1
    63   105   104    1
    64    70    68   ar
    65    42    43    1
    66   111   109    1
    67    67    68   ar
    68    67    66    1
    69   109   110    1
    70    45    44    2
    71    46    43    1
    72    43    44    1
    73    66    63    1
    74    65    64    2
    75    64    63    1
    76    63    62    1
    77    62    57   am
    78   100    99    2
    79    98    97    1
    80    98    99    1
    81    98   101    1
    82   103   101    1
    83    95    96   ar
    84    95    93   ar
    85    57    56    1
    86    57    58    2
    87    96    94   ar
    88    59    56    1
    89    59    60    1
    90   101   102    1
    91    93    92   ar
    92    56    55    1
    93    94    92   ar
    94    90    89    2
    95    92    91    1
    96    60    61    1
    97    88    91    1
    98    88    89    1
    99    88    87    1
   100    50    49    2
   101    55    49   am
   102    55    61    1
   103    49    48    1
   104    48    47    1
   105    48    51    1
   106    51    52    1
   107    54    52   am
   108    52    53    2
