@<TRIPOS>MOLECULE
tmp/2ka9A01.pdb
 131 126 0 0 0
SMALL
GASTEIGER

@<TRIPOS>ATOM
      1  N         32.5400    8.9360  -14.5220 N.3   108  LYS108     -0.1231
      2  CA        32.1270   10.0020  -13.6270 C.3   108  LYS108      0.1693
      3  C         31.1240    9.4730  -12.6140 C.2   108  LYS108      0.2593
      4  O         30.3570   10.2330  -12.0240 O.2   108  LYS108     -0.2718
      5  CB        31.5290   11.1700  -14.4120 C.3   108  LYS108      0.0285
      6  CG        30.2330   10.8250  -15.1280 C.3   108  LYS108      0.0035
      7  CD        30.4570   10.5980  -16.6140 C.3   108  LYS108      0.0206
      8  CE        29.1890   10.1200  -17.3030 C.3   108  LYS108      0.1093
      9  NZ        28.6540    8.8770  -16.6820 N.3   108  LYS108     -0.1314
     10  N         31.1330    8.1570  -12.4250 N.am  109  GLY109     -0.1942
     11  CA        30.2180    7.5380  -11.4940 C.3   109  GLY109      0.2014
     12  C         29.0800    6.8600  -12.2140 C.2   109  GLY109      0.2639
     13  O         29.2150    6.4880  -13.3790 O.2   109  GLY109     -0.2714
     14  N         27.9550    6.7010  -11.5360 N.am  110  LEU110     -0.1963
     15  CA        26.8040    6.0640  -12.1510 C.3   110  LEU110      0.1728
     16  C         25.9570    7.0810  -12.9180 C.2   110  LEU110      0.2617
     17  O         25.0880    6.7070  -13.7050 O.2   110  LEU110     -0.2715
     18  CB        25.9550    5.3530  -11.0960 C.3   110  LEU110      0.0311
     19  CG        26.3140    3.8860  -10.8570 C.3   110  LEU110      0.0022
     20  CD1       27.7800    3.7520  -10.4720 C.3   110  LEU110      0.0001
     21  CD2       25.4230    3.2890   -9.7790 C.3   110  LEU110      0.0001
     22  N         26.2180    8.3660  -12.6860 N.am  111  GLY111     -0.1940
     23  CA        25.4740    9.4090  -13.3670 C.3   111  GLY111      0.2014
     24  C         24.0660    9.5800  -12.8240 C.2   111  GLY111      0.2639
     25  O         23.0890    9.3680  -13.5420 O.2   111  GLY111     -0.2714
     26  N         23.9640    9.9650  -11.5550 N.am  112  PHE112     -0.1959
     27  CA        22.6650   10.1660  -10.9180 C.3   112  PHE112      0.1771
     28  C         22.8300   10.6560   -9.4820 C.2   112  PHE112      0.2620
     29  O         23.8210   10.3480   -8.8200 O.2   112  PHE112     -0.2715
     30  CB        21.8470    8.8670  -10.9460 C.3   112  PHE112      0.0574
     31  CG        22.2820    7.8390   -9.9350 C.ar  112  PHE112     -0.0200
     32  CD1       23.6270    7.6150   -9.6800 C.ar  112  PHE112     -0.0042
     33  CD2       21.3400    7.0960   -9.2400 C.ar  112  PHE112     -0.0042
     34  CE1       24.0220    6.6700   -8.7510 C.ar  112  PHE112     -0.0003
     35  CE2       21.7300    6.1500   -8.3120 C.ar  112  PHE112     -0.0003
     36  CZ        23.0720    5.9370   -8.0670 C.ar  112  PHE112     -0.0000
     37  N         21.8510   11.4210   -9.0040 N.am  113  SER113     -0.1936
     38  CA        21.8880   11.9490   -7.6470 C.3   113  SER113      0.2055
     39  C         20.8400   11.2660   -6.7790 C.2   113  SER113      0.2643
     40  O         19.6410   11.3750   -7.0340 O.2   113  SER113     -0.2714
     41  CB        21.6540   13.4610   -7.6590 C.3   113  SER113      0.2130
     42  OG        22.4480   14.1080   -6.6810 O.3   113  SER113     -0.2179
     43  N         21.3000   10.5590   -5.7550 N.am  114  ILE114     -0.1963
     44  CA        20.4030    9.8540   -4.8510 C.3   114  ILE114      0.1727
     45  C         20.8310   10.0470   -3.4030 C.2   114  ILE114      0.2616
     46  O         22.0070   10.2690   -3.1190 O.2   114  ILE114     -0.2715
     47  CB        20.3520    8.3450   -5.1780 C.3   114  ILE114      0.0290
     48  CG1       21.6160    7.6330   -4.6800 C.3   114  ILE114      0.0022
     49  CG2       20.1870    8.1400   -6.6750 C.3   114  ILE114      0.0023
     50  CD1       21.6470    6.1560   -5.0070 C.3   114  ILE114      0.0001
     51  N         19.8750    9.9570   -2.4850 N.am  115  ALA115     -0.1977
     52  CA        20.1880   10.1220   -1.0670 C.3   115  ALA115      0.1597
     53  C         19.2300    9.3460   -0.1670 C.2   115  ALA115      0.2287
     54  O         18.0130    9.5220   -0.2320 O.2   115  ALA115     -0.2864
     55  CB        20.1740   11.5970   -0.6970 C.3   115  ALA115      0.0319
     56  N         20.9010   11.2180    6.6450 N.3   120  ASN120     -0.1240
     57  CA        20.4620   11.9440    5.4630 C.3   120  ASN120      0.1653
     58  C         19.5440   11.0540    4.6310 C.2   120  ASN120      0.2266
     59  O         19.9060   10.6090    3.5420 O.2   120  ASN120     -0.2867
     60  CB        21.6670   12.3980    4.6340 C.3   120  ASN120      0.1155
     61  CG        21.6140   13.8770    4.3030 C.2   120  ASN120      0.2627
     62  OD1       20.5970   14.3820    3.8270 O.2   120  ASN120     -0.2716
     63  ND2       22.7120   14.5800    4.5550 N.am  120  ASN120     -0.0877
     64  N         17.1570   11.8860    3.0430 N.3   122  HIS122     -0.1241
     65  CA        16.6480   12.6450    1.9030 C.3   122  HIS122      0.1621
     66  C         15.1900   13.0170    2.1170 C.2   122  HIS122      0.2264
     67  O         14.8180   14.1900    2.1160 O.2   122  HIS122     -0.2867
     68  CB        16.8160   11.8420    0.6030 C.3   122  HIS122      0.0745
     69  CG        16.0410   12.3900   -0.5540 C.ar  122  HIS122      0.0817
     70  ND1       16.3950   13.5460   -1.2090 N.ar  122  HIS122     -0.2268
     71  CD2       14.9310   11.9280   -1.1770 C.ar  122  HIS122      0.1154
     72  CE1       15.5400   13.7750   -2.1890 C.ar  122  HIS122      0.1986
     73  NE2       14.6420   12.8070   -2.1910 N.ar  122  HIS122     -0.2212
     74  N         17.0650   12.1590   -6.9470 N.3   132  THR132     -0.1218
     75  CA        16.6710   13.5620   -7.0030 C.3   132  THR132      0.1862
     76  C         17.1400   14.2580   -8.2860 C.2   132  THR132      0.2287
     77  O         16.5130   15.2220   -8.7270 O.2   132  THR132     -0.2866
     78  CB        17.1880   14.2960   -5.7550 C.3   132  THR132      0.1770
     79  OG1       16.1000   14.7730   -4.9810 O.3   132  THR132     -0.2211
     80  CG2       18.0900   15.4790   -6.0450 C.3   132  THR132      0.0375
     81  N         21.9560   13.1660  -14.7660 N.3   135  ILE135     -0.1245
     82  CA        22.6870   13.8640  -15.8180 C.3   135  ILE135      0.1561
     83  C         22.1830   13.4400  -17.1940 C.2   135  ILE135      0.2260
     84  O         21.3660   12.5270  -17.3110 O.2   135  ILE135     -0.2867
     85  CB        24.2090   13.6030  -15.7400 C.3   135  ILE135      0.0252
     86  CG1       24.6440   13.3100  -14.2990 C.3   135  ILE135      0.0019
     87  CG2       24.9770   14.7960  -16.2980 C.3   135  ILE135      0.0019
     88  CD1       26.1420   13.1610  -14.1340 C.3   135  ILE135      0.0001
     89  N         23.7550    7.3180    5.1740 N.3   165  HIS165     -0.1226
     90  CA        23.9200    7.8880    3.8450 C.3   165  HIS165      0.1752
     91  C         25.3470    7.6760    3.3460 C.2   165  HIS165      0.2595
     92  O         25.5880    7.5630    2.1470 O.2   165  HIS165     -0.2718
     93  CB        23.5850    9.3810    3.8580 C.3   165  HIS165      0.0759
     94  CG        24.3900   10.1650    4.8470 C.ar  165  HIS165      0.0818
     95  ND1       23.9240   10.4980    6.1020 N.ar  165  HIS165     -0.2268
     96  CD2       25.6380   10.6860    4.7610 C.ar  165  HIS165      0.1154
     97  CE1       24.8500   11.1880    6.7440 C.ar  165  HIS165      0.1986
     98  NE2       25.8990   11.3160    5.9530 N.ar  165  HIS165     -0.2212
     99  N         26.2910    7.6300    4.2820 N.am  166  GLU166     -0.1979
    100  CA        27.6970    7.4410    3.9460 C.3   166  GLU166      0.1602
    101  C         28.0030    6.0090    3.5210 C.2   166  GLU166      0.2287
    102  O         28.7000    5.7880    2.5310 O.2   166  GLU166     -0.2864
    103  CB        28.5820    7.8320    5.1320 C.3   166  GLU166      0.0415
    104  CG        30.0210    8.1320    4.7420 C.3   166  GLU166      0.1163
    105  CD        30.4400    9.5450    5.0970 C.2   166  GLU166      0.3649
    106  OE1       29.7050   10.4900    4.7410 O.co2 166  GLU166     -0.2457
    107  OE2       31.5040    9.7070    5.7320 O.co2 166  GLU166     -0.2457
    108  N         26.1200    5.2620    0.3340 N.3   169  VAL169     -0.1245
    109  CA        26.7340    5.9560   -0.7820 C.3   169  VAL169      0.1561
    110  C         27.9920    5.2230   -1.2370 C.2   169  VAL169      0.2260
    111  O         28.2250    5.0480   -2.4320 O.2   169  VAL169     -0.2867
    112  CB        27.0720    7.4220   -0.4240 C.3   169  VAL169      0.0252
    113  CG1       28.1100    8.0010   -1.3790 C.3   169  VAL169      0.0019
    114  CG2       25.8100    8.2720   -0.4330 C.3   169  VAL169      0.0019
    115  N         27.0370    1.9340   -2.8450 N.3   172  LEU172     -0.1231
    116  CA        26.4330    2.0640   -4.1620 C.3   172  LEU172      0.1693
    117  C         27.5090    2.2980   -5.2130 C.2   172  LEU172      0.2591
    118  O         27.4540    1.7430   -6.3110 O.2   172  LEU172     -0.2718
    119  CB        25.4000    3.2020   -4.1750 C.3   172  LEU172      0.0284
    120  CG        25.9390    4.5870   -4.5440 C.3   172  LEU172      0.0019
    121  CD1       25.9920    4.7560   -6.0540 C.3   172  LEU172      0.0001
    122  CD2       25.0820    5.6760   -3.9140 C.3   172  LEU172      0.0001
    123  N         28.5000    3.1090   -4.8580 N.am  173  LYS173     -0.1980
    124  CA        29.5990    3.3990   -5.7610 C.3   173  LYS173      0.1596
    125  C         30.5490    2.2100   -5.8250 C.2   173  LYS173      0.2287
    126  O         31.2410    2.0070   -6.8240 O.2   173  LYS173     -0.2864
    127  CB        30.3510    4.6540   -5.3130 C.3   173  LYS173      0.0298
    128  CG        30.9840    4.5300   -3.9380 C.3   173  LYS173      0.0038
    129  CD        32.3200    5.2520   -3.8720 C.3   173  LYS173      0.0206
    130  CE        33.1700    4.7570   -2.7110 C.3   173  LYS173      0.1093
    131  NZ        34.4950    4.2570   -3.1660 N.3   173  LYS173     -0.1314
@<TRIPOS>BOND
     1    84    83    2
     2     8     9    1
     3     8     7    1
     4    83    82    1
     5     7     6    1
     6    87    85    1
     7    82    85    1
     8    82    81    1
     9    85    86    1
    10     6     5    1
    11     1     2    1
    12     5     2    1
    13    86    88    1
    14    17    16    2
    15     2     3    1
    16    25    24    2
    17    13    12    2
    18    23    24    1
    19    23    22    1
    20    16    22   am
    21    16    15    1
    22    24    26   am
    23     3    10   am
    24     3     4    2
    25    10    11    1
    26    12    14   am
    27    12    11    1
    28    15    14    1
    29    15    18    1
    30    26    27    1
    31    18    19    1
    32    30    27    1
    33    30    31    1
    34    27    28    1
    35    19    20    1
    36    19    21    1
    37    31    32   ar
    38    31    33   ar
    39    32    34   ar
    40    28    37   am
    41    28    29    2
    42    33    35   ar
    43    37    38    1
    44    34    36   ar
    45    77    76    2
    46    35    36   ar
    47    76    75    1
    48    41    38    1
    49    41    42    1
    50    38    39    1
    51    40    39    2
    52    75    74    1
    53    75    78    1
    54   126   125    2
    55    39    43   am
    56    49    47    1
    57   118   117    2
    58   121   120    1
    59    80    78    1
    60   125   124    1
    61   124   127    1
    62   124   123    1
    63    43    44    1
    64    78    79    1
    65   127   128    1
    66   117   123   am
    67   117   116    1
    68    47    44    1
    69    47    48    1
    70    50    48    1
    71    44    45    1
    72   120   119    1
    73   120   122    1
    74   119   116    1
    75   116   115    1
    76   128   129    1
    77   129   130    1
    78    45    46    2
    79    45    51   am
    80   131   130    1
    81    51    52    1
    82   111   110    2
    83    73    72   ar
    84    73    71   ar
    85    72    70   ar
    86   113   112    1
    87   110   109    1
    88    70    69   ar
    89    71    69   ar
    90    52    55    1
    91    52    53    1
    92   109   112    1
    93   109   108    1
    94    69    68    1
    95   114   112    1
    96    54    53    2
    97    68    65    1
    98    65    66    1
    99    65    64    1
   100    67    66    2
   101    92    91    2
   102   102   101    2
   103    91    90    1
   104    91    99   am
   105   101   100    1
   106    59    58    2
   107    62    61    2
   108    90    93    1
   109    90    89    1
   110    93    94    1
   111   100    99    1
   112   100   103    1
   113    61    63   am
   114    61    60    1
   115    58    57    1
   116    60    57    1
   117   106   105   ar
   118   104   105    1
   119   104   103    1
   120    96    94   ar
   121    96    98   ar
   122    94    95   ar
   123   105   107   ar
   124    57    56    1
   125    98    97   ar
   126    95    97   ar
