@<TRIPOS>MOLECULE
tmp/2kawA00.pdb
 98 92 0 0 0
SMALL
GASTEIGER

@<TRIPOS>ATOM
      1  N        -11.1320   -3.4310   -5.2150 N.3    14  PHE14      -0.1227
      2  CA        -9.7240   -3.1320   -5.4300 C.3    14  PHE14       0.1736
      3  C         -9.3550   -1.8220   -4.7490 C.2    14  PHE14       0.2595
      4  O        -10.2140   -0.9730   -4.5080 O.2    14  PHE14      -0.2718
      5  CB        -9.3760   -3.0960   -6.9280 C.3    14  PHE14       0.0547
      6  CG       -10.1250   -2.0760   -7.7460 C.ar   14  PHE14      -0.0202
      7  CD1      -11.4120   -2.3300   -8.1970 C.ar   14  PHE14      -0.0042
      8  CD2       -9.5280   -0.8710   -8.0860 C.ar   14  PHE14      -0.0042
      9  CE1      -12.0890   -1.4020   -8.9660 C.ar   14  PHE14      -0.0003
     10  CE2      -10.1990    0.0580   -8.8590 C.ar   14  PHE14      -0.0003
     11  CZ       -11.4820   -0.2060   -9.2970 C.ar   14  PHE14      -0.0000
     12  N         -8.0790   -1.6650   -4.4360 N.am   15  LEU15      -0.1966
     13  CA        -7.6040   -0.4670   -3.7610 C.3    15  LEU15       0.1728
     14  C         -7.4050    0.6740   -4.7510 C.2    15  LEU15       0.2617
     15  O         -7.6810    1.8330   -4.4390 O.2    15  LEU15      -0.2715
     16  CB        -6.2960   -0.7610   -3.0220 C.3    15  LEU15       0.0311
     17  CG        -6.2850   -2.0410   -2.1800 C.3    15  LEU15       0.0022
     18  CD1       -4.9210   -2.2360   -1.5300 C.3    15  LEU15       0.0001
     19  CD2       -7.3840   -1.9990   -1.1270 C.3    15  LEU15       0.0001
     20  N         -6.9370    0.3330   -5.9460 N.am   16  GLY16      -0.1940
     21  CA        -6.6990    1.3290   -6.9680 C.3    16  GLY16       0.2014
     22  C         -5.4410    2.1360   -6.7150 C.2    16  GLY16       0.2639
     23  O         -5.4740    3.3580   -6.7710 O.2    16  GLY16      -0.2714
     24  N         -4.3340    1.4550   -6.4380 N.am   17  ILE17      -0.1963
     25  CA        -3.0570    2.1330   -6.1720 C.3    17  ILE17       0.1727
     26  C         -1.8890    1.2840   -6.6360 C.2    17  ILE17       0.2617
     27  O         -1.5370    0.3020   -5.9860 O.2    17  ILE17      -0.2715
     28  CB        -2.8530    2.4530   -4.6730 C.3    17  ILE17       0.0290
     29  CG1       -3.4400    1.3440   -3.7930 C.3    17  ILE17       0.0022
     30  CG2       -3.4490    3.8080   -4.3220 C.3    17  ILE17       0.0023
     31  CD1       -2.8300    1.2850   -2.4090 C.3    17  ILE17       0.0001
     32  N         -1.2930    1.6450   -7.7620 N.am   18  SER18      -0.1936
     33  CA        -0.1790    0.8740   -8.2870 C.3    18  SER18       0.2055
     34  C          1.0790    1.1050   -7.4520 C.2    18  SER18       0.2642
     35  O          1.5610    2.2280   -7.3170 O.2    18  SER18      -0.2714
     36  CB         0.0490    1.1920   -9.7690 C.3    18  SER18       0.2130
     37  OG         0.3410    2.5700   -9.9700 O.3    18  SER18      -0.2179
     38  N          1.5770    0.0280   -6.8580 N.am   19  ILE19      -0.1977
     39  CA         2.7680    0.0870   -6.0150 C.3    19  ILE19       0.1596
     40  C          4.0390    0.1840   -6.8570 C.2    19  ILE19       0.2287
     41  O          4.2480   -0.6100   -7.7730 O.2    19  ILE19      -0.2864
     42  CB         2.8760   -1.1540   -5.1010 C.3    19  ILE19       0.0276
     43  CG1        1.4950   -1.5710   -4.5780 C.3    19  ILE19       0.0022
     44  CG2        3.8200   -0.8690   -3.9420 C.3    19  ILE19       0.0022
     45  CD1        0.8080   -0.5170   -3.7320 C.3    19  ILE19       0.0001
     46  N          8.1450    0.1910   -6.5790 N.3    21  GLY21      -0.1225
     47  CA         9.3030   -0.0390   -5.7370 C.3    21  GLY21       0.1811
     48  C         10.4950    0.7840   -6.1800 C.2    21  GLY21       0.2280
     49  O         10.8470    0.7940   -7.3600 O.2    21  GLY21      -0.2866
     50  N         -6.3100    4.6190   -9.0180 N.3    37  MET37      -0.1245
     51  CA        -7.3240    4.2770  -10.0030 C.3    37  MET37       0.1570
     52  C         -8.7120    4.5920   -9.4620 C.2    37  MET37       0.2261
     53  O         -9.1010    4.0900   -8.4020 O.2    37  MET37      -0.2867
     54  CB        -7.2340    2.7930  -10.3750 C.3    37  MET37       0.0387
     55  CG        -5.8080    2.2670  -10.4700 C.3    37  MET37       0.0595
     56  SD        -4.7880    3.2050  -11.6260 S.3    37  MET37      -0.1393
     57  CE        -3.1670    2.5220  -11.2730 C.3    37  MET37       0.0692
     58  N         10.2430   -6.0320   -3.5920 N.3    68  ASP68      -0.1239
     59  CA         9.4900   -7.1360   -4.1730 C.3    68  ASP68       0.1674
     60  C          8.7670   -7.9250   -3.0960 C.2    68  ASP68       0.2266
     61  O          7.6040   -8.2910   -3.2550 O.2    68  ASP68      -0.2867
     62  CB        10.4200   -8.0740   -4.9390 C.3    68  ASP68       0.1410
     63  CG        10.8490   -7.5140   -6.2770 C.2    68  ASP68       0.3668
     64  OD1       11.6080   -6.5210   -6.2990 O.co2  68  ASP68      -0.2456
     65  OD2       10.4290   -8.0670   -7.3140 O.co2  68  ASP68      -0.2456
     66  N          5.6130   -6.2870   -1.8120 N.3    71  VAL71      -0.1245
     67  CA         4.4910   -6.5010   -2.7150 C.3    71  VAL71       0.1561
     68  C          3.9700   -7.9310   -2.5800 C.2    71  VAL71       0.2260
     69  O          2.7640   -8.1740   -2.6750 O.2    71  VAL71      -0.2867
     70  CB         4.8850   -6.2190   -4.1840 C.3    71  VAL71       0.0252
     71  CG1        3.7210   -6.4880   -5.1240 C.3    71  VAL71       0.0019
     72  CG2        5.3670   -4.7820   -4.3390 C.3    71  VAL71       0.0019
     73  N          2.0120   -7.9970    0.5290 N.3    74  LEU74      -0.1231
     74  CA         0.8900   -7.1010    0.2820 C.3    74  LEU74       0.1693
     75  C         -0.1860   -7.8080   -0.5360 C.2    74  LEU74       0.2591
     76  O         -1.3730   -7.7000   -0.2370 O.2    74  LEU74      -0.2718
     77  CB         1.3600   -5.8400   -0.4520 C.3    74  LEU74       0.0284
     78  CG         0.2620   -4.8310   -0.7940 C.3    74  LEU74       0.0019
     79  CD1       -0.2760   -4.1740    0.4670 C.3    74  LEU74       0.0001
     80  CD2        0.7860   -3.7770   -1.7610 C.3    74  LEU74       0.0001
     81  N          0.2380   -8.5510   -1.5530 N.am   75  ARG75      -0.1980
     82  CA        -0.6900   -9.2740   -2.4110 C.3    75  ARG75       0.1597
     83  C         -1.5050  -10.2830   -1.6140 C.2    75  ARG75       0.2287
     84  O         -2.6800  -10.4930   -1.9000 O.2    75  ARG75      -0.2864
     85  CB         0.0460   -9.9660   -3.5640 C.3    75  ARG75       0.0334
     86  CG         0.0820   -9.1200   -4.8250 C.3    75  ARG75       0.0492
     87  CD         0.6010   -9.8920   -6.0280 C.3    75  ARG75       0.2205
     88  NE         0.3230   -9.1860   -7.2810 N.pl3  75  ARG75      -0.0865
     89  CZ         1.2440   -8.8830   -8.1960 C.cat  75  ARG75       0.5346
     90  NH1        2.5200   -9.2050   -7.9970 N.pl3  75  ARG75       0.1354
     91  NH2        0.8920   -8.2360   -9.3030 N.pl3  75  ARG75       0.1354
     92  N         -4.0960   -8.1210    0.0760 N.3    78  VAL78      -0.1245
     93  CA        -4.9770   -7.5480   -0.9410 C.3    78  VAL78       0.1561
     94  C         -5.8970   -8.6140   -1.5490 C.2    78  VAL78       0.2260
     95  O         -7.0150   -8.3200   -1.9720 O.2    78  VAL78      -0.2867
     96  CB        -4.1360   -6.8610   -2.0470 C.3    78  VAL78       0.0252
     97  CG1       -5.0000   -6.3890   -3.2080 C.3    78  VAL78       0.0019
     98  CG2       -3.3610   -5.6910   -1.4550 C.3    78  VAL78       0.0019
@<TRIPOS>BOND
     1    56    57    1
     2    56    55    1
     3    55    54    1
     4    54    51    1
     5    51    52    1
     6    51    50    1
     7    37    36    1
     8    36    33    1
     9    52    53    2
    10    91    89    1
    11    11     9   ar
    12    11    10   ar
    13     9     7   ar
    14    10     8   ar
    15    33    32    1
    16    33    34    1
    17     7     6   ar
    18    89    90    1
    19    89    88    2
    20     8     6   ar
    21    41    40    2
    22    32    26   am
    23     6     5    1
    24    34    35    2
    25    34    38   am
    26    49    48    2
    27    65    63   ar
    28    88    87    1
    29    21    22    1
    30    21    20    1
    31     5     2    1
    32    38    39    1
    33    40    39    1
    34    23    22    2
    35    22    24   am
    36    26    25    1
    37    26    27    2
    38    46    47    1
    39    24    25    1
    40    64    63   ar
    41    63    62    1
    42    48    47    1
    43    25    28    1
    44    87    86    1
    45    39    42    1
    46    20    14   am
    47     2     1    1
    48     2     3    1
    49    71    70    1
    50    42    43    1
    51    42    44    1
    52    62    59    1
    53    86    85    1
    54    14    15    2
    55    14    13    1
    56     3     4    2
    57     3    12   am
    58    28    30    1
    59    28    29    1
    60    43    45    1
    61    12    13    1
    62    72    70    1
    63    70    67    1
    64    59    58    1
    65    59    60    1
    66    29    31    1
    67    13    16    1
    68    85    82    1
    69    61    60    2
    70    97    96    1
    71    16    17    1
    72    67    68    1
    73    67    66    1
    74    69    68    2
    75    82    83    1
    76    82    81    1
    77    17    18    1
    78    17    19    1
    79    96    98    1
    80    96    93    1
    81    95    94    2
    82    84    83    2
    83    80    78    1
    84    81    75   am
    85    94    93    1
    86    93    92    1
    87    78    77    1
    88    78    79    1
    89    75    76    2
    90    75    74    1
    91    77    74    1
    92    74    73    1
