@<TRIPOS>MOLECULE
tmp/2kbsA00.pdb
 146 141 0 0 0
SMALL
GASTEIGER

@<TRIPOS>ATOM
      1  N          1.8980   15.3960    4.1160 N.3    14  GLY14      -0.1210
      2  CA         2.1850   14.0790    3.5790 C.3    14  GLY14       0.1956
      3  C          1.2780   13.7170    2.4180 C.2    14  GLY14       0.2612
      4  O          0.5680   14.5730    1.8880 O.2    14  GLY14      -0.2717
      5  N          1.2990   12.4490    2.0220 N.am   15  LEU15      -0.1965
      6  CA         0.4710   11.9830    0.9170 C.3    15  LEU15       0.1728
      7  C         -0.9750   11.7960    1.3690 C.2    15  LEU15       0.2617
      8  O         -1.9080   12.1500    0.6500 O.2    15  LEU15      -0.2715
      9  CB         1.0600   10.6880    0.3250 C.3    15  LEU15       0.0311
     10  CG         0.2470    9.3950    0.5170 C.3    15  LEU15       0.0022
     11  CD1       -0.1700    8.8230   -0.8290 C.3    15  LEU15       0.0001
     12  CD2        1.0570    8.3720    1.3020 C.3    15  LEU15       0.0001
     13  N         -1.1540   11.2500    2.5670 N.am   16  GLY16      -0.1940
     14  CA        -2.4920   11.0440    3.0920 C.3    16  GLY16       0.2014
     15  C         -2.9600    9.6030    2.9950 C.2    16  GLY16       0.2639
     16  O         -4.1620    9.3380    3.0350 O.2    16  GLY16      -0.2714
     17  N         -2.0240    8.6670    2.8620 N.am   17  CYS17      -0.1953
     18  CA        -2.3820    7.2550    2.7570 C.3    17  CYS17       0.1843
     19  C         -1.5330    6.3900    3.6850 C.2    17  CYS17       0.2626
     20  O         -0.4370    6.7780    4.0880 O.2    17  CYS17      -0.2714
     21  CB        -2.2480    6.7780    1.2990 C.3    17  CYS17       0.0997
     22  SG        -0.7490    5.8300    0.9250 S.3    17  CYS17      -0.0797
     23  N         -2.0470    5.2070    3.9990 N.am   18  SER18      -0.1936
     24  CA        -1.3430    4.2650    4.8590 C.3    18  SER18       0.2055
     25  C         -0.9790    3.0180    4.0630 C.2    18  SER18       0.2643
     26  O         -1.3770    2.8780    2.9070 O.2    18  SER18      -0.2714
     27  CB        -2.2100    3.8880    6.0610 C.3    18  SER18       0.2130
     28  OG        -2.1860    4.9050    7.0490 O.3    18  SER18      -0.2179
     29  N         -0.2200    2.1160    4.6710 N.am   19  ILE19      -0.1963
     30  CA         0.1810    0.8930    3.9870 C.3    19  ILE19       0.1727
     31  C          0.2180   -0.2980    4.9370 C.2    19  ILE19       0.2617
     32  O          0.5550   -0.1630    6.1130 O.2    19  ILE19      -0.2715
     33  CB         1.5550    1.0390    3.3060 C.3    19  ILE19       0.0290
     34  CG1        2.5200    1.8170    4.2010 C.3    19  ILE19       0.0022
     35  CG2        1.4050    1.7260    1.9570 C.3    19  ILE19       0.0023
     36  CD1        3.9170    1.9140    3.6320 C.3    19  ILE19       0.0001
     37  N         -0.1340   -1.4630    4.4090 N.am   20  SER20      -0.1936
     38  CA        -0.1500   -2.6930    5.1870 C.3    20  SER20       0.2055
     39  C          0.6240   -3.7910    4.4670 C.2    20  SER20       0.2644
     40  O          0.8800   -3.6950    3.2670 O.2    20  SER20      -0.2714
     41  CB        -1.5890   -3.1470    5.4380 C.3    20  SER20       0.2130
     42  OG        -1.6210   -4.3620    6.1670 O.3    20  SER20      -0.2179
     43  N          0.9960   -4.8320    5.2000 N.am   21  SER21      -0.1935
     44  CA         1.7420   -5.9400    4.6200 C.3    21  SER21       0.2055
     45  C          0.8320   -7.1470    4.4180 C.2    21  SER21       0.2644
     46  O         -0.0680   -7.3990    5.2200 O.2    21  SER21      -0.2714
     47  CB         2.9240   -6.3150    5.5160 C.3    21  SER21       0.2130
     48  OG         4.1280   -5.7410    5.0400 O.3    21  SER21      -0.2179
     49  N          1.0620   -7.8780    3.3340 N.am   22  GLY22      -0.1940
     50  CA         0.2430   -9.0370    3.0350 C.3    22  GLY22       0.1998
     51  C          0.7650  -10.3140    3.6690 C.2    22  GLY22       0.2480
     52  O          1.8320  -10.3190    4.2800 O.2    22  GLY22      -0.2729
     53  N          0.0170  -11.4220    3.5310 N.am   23  PRO23      -0.2726
     54  CA         0.4060  -12.7200    4.0940 C.3    23  PRO23       0.1402
     55  C          1.6120  -13.3230    3.3790 C.2    23  PRO23       0.2269
     56  O          2.3650  -12.6160    2.7090 O.2    23  PRO23      -0.2865
     57  CB        -0.8390  -13.5860    3.8770 C.3    23  PRO23       0.0296
     58  CG        -1.5290  -12.9700    2.7110 C.3    23  PRO23       0.0237
     59  CD        -1.2680  -11.4930    2.8130 C.3    23  PRO23       0.0939
     60  N          0.7940   -3.0220    0.6340 N.3    30  PHE30      -0.1241
     61  CA        -0.6090   -2.7280    0.3610 C.3    30  PHE30       0.1605
     62  C         -0.9650   -1.3100    0.7890 C.2    30  PHE30       0.2264
     63  O         -0.1770   -0.6320    1.4490 O.2    30  PHE30      -0.2867
     64  CB        -1.5100   -3.7340    1.0790 C.3    30  PHE30       0.0534
     65  CG        -1.2390   -5.1640    0.6990 C.ar   30  PHE30      -0.0203
     66  CD1       -0.0130   -5.7470    0.9730 C.ar   30  PHE30      -0.0042
     67  CD2       -2.2120   -5.9230    0.0680 C.ar   30  PHE30      -0.0042
     68  CE1        0.2380   -7.0620    0.6250 C.ar   30  PHE30      -0.0003
     69  CE2       -1.9670   -7.2380   -0.2820 C.ar   30  PHE30      -0.0003
     70  CZ        -0.7400   -7.8060   -0.0030 C.ar   30  PHE30      -0.0000
     71  N         -3.5970    1.2690    2.8160 N.3    32  SER32      -0.1217
     72  CA        -4.5690    1.3320    3.9000 C.3    32  SER32       0.1889
     73  C         -5.4420    2.5750    3.7610 C.2    32  SER32       0.2288
     74  O         -5.4070    3.2590    2.7370 O.2    32  SER32      -0.2866
     75  CB        -3.8540    1.3340    5.2530 C.3    32  SER32       0.2089
     76  OG        -3.9720    0.0730    5.8930 O.3    32  SER32      -0.2183
     77  N         -6.6180    9.8320    3.9370 N.3    35  LYS35      -0.1245
     78  CA        -7.3120   11.0450    4.3520 C.3    35  LYS35       0.1561
     79  C         -7.7080   11.8950    3.1450 C.2    35  LYS35       0.2260
     80  O         -7.0030   11.9200    2.1360 O.2    35  LYS35      -0.2867
     81  CB        -6.4280   11.8630    5.2960 C.3    35  LYS35       0.0271
     82  CG        -5.9640   11.0870    6.5180 C.3    35  LYS35       0.0035
     83  CD        -4.8750   11.8350    7.2710 C.3    35  LYS35       0.0206
     84  CE        -3.5380   11.7370    6.5550 C.3    35  LYS35       0.1093
     85  NZ        -2.4560   12.4390    7.3020 N.3    35  LYS35      -0.1314
     86  N          0.9770   -1.1670   -4.0570 N.3    51  ILE51      -0.1245
     87  CA         2.0960   -0.5290   -4.7380 C.3    51  ILE51       0.1561
     88  C          3.0920   -1.5690   -5.2430 C.2    51  ILE51       0.2260
     89  O          3.6230   -2.3630   -4.4660 O.2    51  ILE51      -0.2867
     90  CB         2.8290    0.4590   -3.8080 C.3    51  ILE51       0.0252
     91  CG1        1.8310    1.4240   -3.1640 C.3    51  ILE51       0.0019
     92  CG2        3.8920    1.2290   -4.5800 C.3    51  ILE51       0.0019
     93  CD1        2.4430    2.2940   -2.0870 C.3    51  ILE51       0.0001
     94  N          8.1220   -4.2310    4.2150 N.3    64  HIS64      -0.1241
     95  CA         7.2280   -3.1950    4.7180 C.3    64  HIS64       0.1621
     96  C          8.0050   -1.9380    5.0940 C.2    64  HIS64       0.2264
     97  O          7.7040   -0.8420    4.6160 O.2    64  HIS64      -0.2867
     98  CB         6.4530   -3.7120    5.9330 C.3    64  HIS64       0.0745
     99  CG         5.2580   -2.8790    6.2810 C.ar   64  HIS64       0.0817
    100  ND1        5.0520   -1.6110    5.7800 N.ar   64  HIS64      -0.2268
    101  CD2        4.2020   -3.1400    7.0850 C.ar   64  HIS64       0.1154
    102  CE1        3.9210   -1.1280    6.2640 C.ar   64  HIS64       0.1986
    103  NE2        3.3860   -2.0360    7.0580 N.ar   64  HIS64      -0.2212
    104  N          8.0060    2.1260    3.5610 N.3    68  VAL68      -0.1245
    105  CA         7.8180    3.3390    4.3440 C.3    68  VAL68       0.1561
    106  C          9.0790    4.1980    4.3370 C.2    68  VAL68       0.2260
    107  O          9.0040    5.4250    4.3210 O.2    68  VAL68      -0.2867
    108  CB         7.4380    3.0160    5.8020 C.3    68  VAL68       0.0252
    109  CG1        7.1300    4.2910    6.5710 C.3    68  VAL68       0.0019
    110  CG2        6.2560    2.0600    5.8460 C.3    68  VAL68       0.0019
    111  N          9.5220    5.9020    0.8940 N.3    71  LEU71      -0.1231
    112  CA         8.4310    6.8640    0.7900 C.3    71  LEU71       0.1693
    113  C          8.6670    8.0510    1.7210 C.2    71  LEU71       0.2591
    114  O          8.2710    9.1770    1.4190 O.2    71  LEU71      -0.2718
    115  CB         7.0960    6.1930    1.1230 C.3    71  LEU71       0.0284
    116  CG         6.3170    5.6570   -0.0830 C.3    71  LEU71       0.0019
    117  CD1        5.7780    6.8020   -0.9230 C.3    71  LEU71       0.0001
    118  CD2        7.1990    4.7450   -0.9230 C.3    71  LEU71       0.0001
    119  N          9.3180    7.7890    2.8510 N.am   72  LYS72      -0.1980
    120  CA         9.6130    8.8350    3.8250 C.3    72  LYS72       0.1596
    121  C         10.8300    9.6480    3.3970 C.2    72  LYS72       0.2287
    122  O         10.9010   10.8530    3.6350 O.2    72  LYS72      -0.2864
    123  CB         9.8570    8.2200    5.2070 C.3    72  LYS72       0.0298
    124  CG         8.6710    8.3420    6.1500 C.3    72  LYS72       0.0038
    125  CD         7.3980    7.7900    5.5270 C.3    72  LYS72       0.0206
    126  CE         6.1990    7.9910    6.4400 C.3    72  LYS72       0.1093
    127  NZ         5.2980    9.0690    5.9460 N.3    72  LYS72      -0.1314
    128  N         -6.1110   -9.8960   -1.1820 N.3    89  LEU89      -0.1231
    129  CA        -5.7020  -10.2660    0.1690 C.3    89  LEU89       0.1693
    130  C         -6.7160   -9.7760    1.1970 C.2    89  LEU89       0.2592
    131  O         -7.1440  -10.5300    2.0730 O.2    89  LEU89      -0.2718
    132  CB        -4.3220   -9.6850    0.4830 C.3    89  LEU89       0.0284
    133  CG        -3.1490  -10.3860   -0.2050 C.3    89  LEU89       0.0019
    134  CD1       -2.9720  -11.7920    0.3440 C.3    89  LEU89       0.0001
    135  CD2       -3.3570  -10.4210   -1.7110 C.3    89  LEU89       0.0001
    136  N         -7.0950   -8.5030    1.0880 N.am   90  PHE90      -0.1976
    137  CA        -8.0550   -7.9000    2.0090 C.3    90  PHE90       0.1639
    138  C         -9.3080   -8.7630    2.1450 C.2    90  PHE90       0.2290
    139  O         -9.9120   -8.8340    3.2150 O.2    90  PHE90      -0.2864
    140  CB        -8.4340   -6.4960    1.5340 C.3    90  PHE90       0.0560
    141  CG        -7.7360   -5.4020    2.2910 C.ar   90  PHE90      -0.0200
    142  CD1       -6.4880   -4.9510    1.8910 C.ar   90  PHE90      -0.0042
    143  CD2       -8.3280   -4.8250    3.4030 C.ar   90  PHE90      -0.0042
    144  CE1       -5.8430   -3.9470    2.5880 C.ar   90  PHE90      -0.0003
    145  CE2       -7.6890   -3.8200    4.1030 C.ar   90  PHE90      -0.0003
    146  CZ        -6.4440   -3.3800    3.6940 C.ar   90  PHE90      -0.0000
@<TRIPOS>BOND
     1    88    87    1
     2    88    89    2
     3    87    86    1
     4    87    90    1
     5    92    90    1
     6    90    91    1
     7    91    93    1
     8   135   133    1
     9   128   129    1
    10   117   116    1
    11   118   116    1
    12    11    10    1
    13    69    70   ar
    14    69    67   ar
    15   133   134    1
    16   133   132    1
    17   116   115    1
    18    70    68   ar
    19    67    65   ar
    20   129   132    1
    21   129   130    1
    22     9    10    1
    23     9     6    1
    24    61    60    1
    25    61    62    1
    26    61    64    1
    27    10    12    1
    28    68    66   ar
    29     8     7    2
    30    65    66   ar
    31    65    64    1
    32    62    63    2
    33   112   111    1
    34   112   115    1
    35   112   113    1
    36     6     7    1
    37     6     5    1
    38    22    21    1
    39   136   130   am
    40   136   137    1
    41   130   131    2
    42    21    18    1
    43     7    13   am
    44   114   113    2
    45   140   137    1
    46   140   141    1
    47   113   119   am
    48     4     3    2
    49   142   141   ar
    50   142   144   ar
    51    35    33    1
    52   137   138    1
    53     5     3   am
    54    80    79    2
    55   138   139    2
    56   141   143   ar
    57     3     2    1
    58    13    14    1
    59   144   146   ar
    60    56    55    2
    61    58    59    1
    62    58    57    1
    63    74    73    2
    64    18    17    1
    65    18    19    1
    66    59    53    1
    67    71    72    1
    68   119   120    1
    69    17    15   am
    70    26    25    2
    71    15    16    2
    72    15    14    1
    73    50    49    1
    74    50    51    1
    75    79    78    1
    76    40    39    2
    77    33    30    1
    78    33    34    1
    79    49    45   am
    80    55    54    1
    81   121   122    2
    82   121   120    1
    83   143   145   ar
    84    53    51   am
    85    53    54    1
    86   104   105    1
    87     2     1    1
    88    36    34    1
    89    51    52    2
    90    19    23   am
    91    19    20    2
    92   146   145   ar
    93    73    72    1
    94   120   123    1
    95    57    54    1
    96    72    75    1
    97    77    78    1
    98    30    29    1
    99    30    31    1
   100    23    24    1
   101    25    29   am
   102    25    24    1
   103    94    95    1
   104   107   106    2
   105   106   105    1
   106   105   108    1
   107    78    81    1
   108    37    31   am
   109    37    38    1
   110    45    44    1
   111    45    46    2
   112    39    38    1
   113    39    43   am
   114    97    96    2
   115    44    43    1
   116    44    47    1
   117    95    96    1
   118    95    98    1
   119    24    27    1
   120    31    32    2
   121    48    47    1
   122    38    41    1
   123   123   124    1
   124    75    76    1
   125    81    82    1
   126    41    42    1
   127   125   124    1
   128   125   126    1
   129   100   102   ar
   130   100    99   ar
   131   108   110    1
   132   108   109    1
   133    98    99    1
   134   127   126    1
   135    27    28    1
   136   102   103   ar
   137    99   101   ar
   138    82    83    1
   139    84    83    1
   140    84    85    1
   141   103   101   ar
