@<TRIPOS>MOLECULE
tmp/2kceB01.pdb
 214 208 0 0 0
SMALL
GASTEIGER

@<TRIPOS>ATOM
      1  N         52.1030   25.4110   27.1620 N.3    21  ARG21      -0.1231
      2  CA        52.6130   25.0070   25.8560 C.3    21  ARG21       0.1694
      3  C         53.6790   25.9020   25.2490 C.2    21  ARG21       0.2589
      4  O         54.4980   25.4320   24.4660 O.2    21  ARG21      -0.2718
      5  CB        51.4860   24.8850   24.8450 C.3    21  ARG21       0.0321
      6  CG        50.6390   26.0900   24.5780 C.3    21  ARG21       0.0489
      7  CD        50.2340   26.0110   23.1110 C.3    21  ARG21       0.2205
      8  NE        49.5150   27.2320   22.8330 N.pl3  21  ARG21      -0.0865
      9  CZ        50.0990   28.4240   22.7060 C.cat  21  ARG21       0.5346
     10  NH1       51.4130   28.5770   22.6370 N.pl3  21  ARG21       0.1354
     11  NH2       49.3420   29.4930   22.5770 N.pl3  21  ARG21       0.1354
     12  N         53.5890   27.2070   25.5200 N.am   22  THR22      -0.2006
     13  CA        54.6240   28.1790   25.2070 C.3    22  THR22       0.1584
     14  C         55.5990   27.8470   26.3380 C.3    22  THR22       0.2062
     15  O         55.0800   27.7270   27.4600 O.3    22  THR22      -0.2184
     16  CB        54.1000   29.6070   25.4190 C.3    22  THR22       0.1745
     17  OG1       52.7690   29.7310   24.9310 O.3    22  THR22      -0.2212
     18  CG2       55.0060   30.5690   24.7270 C.3    22  THR22       0.0374
     19  N         44.7680   50.8920   32.6110 N.3    48  LYS48      -0.1231
     20  CA        45.7950   50.8730   31.5980 C.3    48  LYS48       0.1693
     21  C         45.0140   51.3170   30.3940 C.2    48  LYS48       0.2592
     22  O         43.8390   50.9970   30.2580 O.2    48  LYS48      -0.2718
     23  CB        46.3250   49.4650   31.4630 C.3    48  LYS48       0.0285
     24  CG        46.6260   48.8810   30.1050 C.3    48  LYS48       0.0035
     25  CD        46.4590   47.4150   30.3710 C.3    48  LYS48       0.0206
     26  CE        46.2690   46.6180   29.0990 C.3    48  LYS48       0.1093
     27  NZ        46.4960   45.2030   29.3460 N.3    48  LYS48      -0.1314
     28  N         45.6210   52.1110   29.5380 N.am   49  ARG49      -0.1966
     29  CA        44.9720   52.4900   28.3170 C.3    49  ARG49       0.1729
     30  C         44.8940   51.3230   27.3450 C.2    49  ARG49       0.2616
     31  O         45.9160   50.7130   26.9720 O.2    49  ARG49      -0.2715
     32  CB        45.7380   53.6590   27.7070 C.3    49  ARG49       0.0348
     33  CG        45.3840   53.9570   26.2390 C.3    49  ARG49       0.0492
     34  CD        45.8410   55.3420   25.7800 C.3    49  ARG49       0.2205
     35  NE        44.8330   56.3510   26.0700 N.pl3  49  ARG49      -0.0865
     36  CZ        43.6980   56.4220   25.3520 C.cat  49  ARG49       0.5346
     37  NH1       43.4520   55.6160   24.3000 N.pl3  49  ARG49       0.1354
     38  NH2       42.7820   57.3270   25.6790 N.pl3  49  ARG49       0.1354
     39  N         43.6640   51.0120   26.9440 N.am   50  CYS50      -0.1954
     40  CA        43.4040   49.9960   25.9380 C.3    50  CYS50       0.1843
     41  C         43.1610   50.6840   24.6080 C.2    50  CYS50       0.2625
     42  O         42.7570   51.8460   24.5370 O.2    50  CYS50      -0.2714
     43  CB        42.1840   49.1550   26.3110 C.3    50  CYS50       0.0997
     44  SG        42.5770   48.1460   27.7610 S.3    50  CYS50      -0.0797
     45  N         43.4270   49.9680   23.5190 N.am   51  HIS51      -0.1973
     46  CA        43.3330   50.5520   22.1920 C.3    51  HIS51       0.1656
     47  C         42.0050   50.0720   21.6130 C.2    51  HIS51       0.2291
     48  O         41.8960   48.9190   21.2060 O.2    51  HIS51      -0.2864
     49  CB        44.5570   50.0710   21.3760 C.3    51  HIS51       0.0771
     50  CG        45.8680   50.1910   22.1730 C.ar   51  HIS51       0.0820
     51  ND1       46.7040   51.2240   22.2710 N.ar   51  HIS51      -0.2267
     52  CD2       46.3630   49.1930   23.0050 C.ar   51  HIS51       0.1154
     53  CE1       47.6570   50.8850   23.1190 C.ar   51  HIS51       0.1986
     54  NE2       47.4450   49.6650   23.5590 N.ar   51  HIS51      -0.2212
     55  N         41.5980   48.5100   17.6080 N.3    54  SER54      -0.1217
     56  CA        41.9660   47.1160   17.4080 C.3    54  SER54       0.1889
     57  C         40.7830   46.2480   17.8210 C.2    54  SER54       0.2288
     58  O         40.4180   45.3370   17.0780 O.2    54  SER54      -0.2866
     59  CB        43.2030   46.7540   18.2640 C.3    54  SER54       0.2089
     60  OG        44.2420   47.7160   18.1660 O.3    54  SER54      -0.2183
     61  N         38.7460   43.9340   14.9220 N.3    58  GLU58      -0.1245
     62  CA        38.7460   42.4890   15.1150 C.3    58  GLU58       0.1567
     63  C         37.3010   42.0160   15.1780 C.2    58  GLU58       0.2260
     64  O         36.9570   41.1120   14.4280 O.2    58  GLU58      -0.2867
     65  CB        39.4360   42.1220   16.4040 C.3    58  GLU58       0.0388
     66  CG        39.5260   40.6150   16.5530 C.3    58  GLU58       0.1160
     67  CD        39.9070   40.1080   17.9320 C.2    58  GLU58       0.3649
     68  OE1       39.4260   40.6450   18.9320 O.co2  58  GLU58      -0.2457
     69  OE2       40.6920   39.1630   17.9980 O.co2  58  GLU58      -0.2457
     70  N         47.4150   42.5730   15.8030 N.3    79  ILE79      -0.1231
     71  CA        47.2490   41.5680   16.8600 C.3    79  ILE79       0.1692
     72  C         47.3350   40.0860   16.5120 C.2    79  ILE79       0.2592
     73  O         47.7680   39.2900   17.3400 O.2    79  ILE79      -0.2718
     74  CB        45.8880   41.7980   17.6340 C.3    79  ILE79       0.0266
     75  CG1       44.6640   41.8080   16.7300 C.3    79  ILE79       0.0019
     76  CG2       46.0320   43.1150   18.3920 C.3    79  ILE79       0.0020
     77  CD1       43.3600   41.7770   17.5360 C.3    79  ILE79       0.0001
     78  N         46.9980   39.6870   15.2980 N.am   80  TRP80      -0.1976
     79  CA        47.0030   38.2830   14.9660 C.3    80  TRP80       0.1640
     80  C         48.1670   37.8640   14.1160 C.2    80  TRP80       0.2290
     81  O         48.2890   36.6940   13.7580 O.2    80  TRP80      -0.2864
     82  CB        45.6940   37.9240   14.2530 C.3    80  TRP80       0.0576
     83  CG        44.5840   37.6080   15.2560 C.ar   80  TRP80       0.0006
     84  CD1       43.6330   38.5440   15.5160 C.ar   80  TRP80       0.0946
     85  CD2       44.4510   36.4680   16.0380 C.ar   80  TRP80       0.0152
     86  NE1       42.9050   38.0180   16.4640 N.ar   80  TRP80      -0.2442
     87  CE2       43.3320   36.8030   16.8140 C.ar   80  TRP80       0.0810
     88  CE3       45.0800   35.2280   16.2290 C.ar   80  TRP80       0.0012
     89  CZ2       42.8300   35.9290   17.7910 C.ar   80  TRP80       0.0191
     90  CZ3       44.5800   34.3450   17.2020 C.ar   80  TRP80       0.0001
     91  CH2       43.4660   34.7000   17.9800 C.ar   80  TRP80       0.0015
     92  N         50.3180   34.5740   14.4630 N.3    83  TRP83      -0.1241
     93  CA        49.7420   33.2450   14.3050 C.3    83  TRP83       0.1605
     94  C         49.3710   32.9210   12.8710 C.2    83  TRP83       0.2264
     95  O         49.0650   31.7680   12.5680 O.2    83  TRP83      -0.2867
     96  CB        48.5240   33.1340   15.2280 C.3    83  TRP83       0.0550
     97  CG        49.0430   33.1730   16.6470 C.ar   83  TRP83       0.0003
     98  CD1       49.4850   32.0310   17.2520 C.ar   83  TRP83       0.0946
     99  CD2       49.2470   34.2950   17.4150 C.ar   83  TRP83       0.0152
    100  NE1       49.9960   32.4230   18.4000 N.ar   83  TRP83      -0.2442
    101  CE2       49.8830   33.7540   18.5380 C.ar   83  TRP83       0.0810
    102  CE3       49.0260   35.6700   17.3370 C.ar   83  TRP83       0.0012
    103  CZ2       50.3030   34.5670   19.5880 C.ar   83  TRP83       0.0191
    104  CZ3       49.4490   36.4960   18.3890 C.ar   83  TRP83       0.0001
    105  CH2       50.0800   35.9440   19.5080 C.ar   83  TRP83       0.0015
    106  N         45.3430   28.6520   16.2580 N.3   143  LEU143     -0.1245
    107  CA        45.2730   28.5940   17.6990 C.3   143  LEU143      0.1561
    108  C         43.8170   28.1930   17.9530 C.2   143  LEU143      0.2260
    109  O         42.9240   28.6120   17.2090 O.2   143  LEU143     -0.2867
    110  CB        45.6060   29.9720   18.2410 C.3   143  LEU143      0.0270
    111  CG        46.0340   30.1100   19.6710 C.3   143  LEU143      0.0019
    112  CD1       47.2370   29.2380   19.9620 C.3   143  LEU143      0.0001
    113  CD2       46.4000   31.5550   19.9060 C.3   143  LEU143      0.0001
    114  N         39.9480   30.8470   22.1220 N.3   146  CYS146     -0.1221
    115  CA        39.9740   31.1270   23.5480 C.3   146  CYS146      0.1808
    116  C         38.5930   31.4120   24.1010 C.2   146  CYS146      0.2601
    117  O         38.1070   30.7960   25.0640 O.2   146  CYS146     -0.2717
    118  CB        40.8650   32.3140   23.8230 C.3   146  CYS146      0.0970
    119  SG        42.5400   31.8570   23.3600 S.3   146  CYS146     -0.0800
    120  N         37.9390   32.4070   23.5020 N.am  147  HIS147     -0.1975
    121  CA        36.5640   32.7030   23.8740 C.3   147  HIS147      0.1656
    122  C         35.7770   31.7150   23.0000 C.2   147  HIS147      0.2291
    123  O         35.6180   31.8790   21.7870 O.2   147  HIS147     -0.2864
    124  CB        36.2570   34.2050   23.5800 C.3   147  HIS147      0.0771
    125  CG        36.7130   34.8300   22.2590 C.ar  147  HIS147      0.0820
    126  ND1       36.0050   35.0790   21.1670 N.ar  147  HIS147     -0.2267
    127  CD2       37.9920   35.2930   22.0150 C.ar  147  HIS147      0.1154
    128  CE1       36.7620   35.6650   20.2780 C.ar  147  HIS147      0.1986
    129  NE2       37.9540   35.7820   20.8030 N.ar  147  HIS147     -0.2212
    130  N         44.4080   34.7450   29.1440 N.3   169  ASP169     -0.1239
    131  CA        45.5810   35.5020   29.5760 C.3   169  ASP169      0.1674
    132  C         44.9930   36.7990   30.1830 C.2   169  ASP169      0.2266
    133  O         44.6040   37.7340   29.4780 O.2   169  ASP169     -0.2867
    134  CB        46.4450   35.7630   28.3380 C.3   169  ASP169      0.1410
    135  CG        47.6760   36.6770   28.4800 C.2   169  ASP169      0.3668
    136  OD1       47.8120   37.4000   29.4540 O.co2 169  ASP169     -0.2456
    137  OD2       48.5050   36.7140   27.5810 O.co2 169  ASP169     -0.2456
    138  N         46.9030   40.4090   29.0060 N.3   172  LEU172     -0.1231
    139  CA        46.7370   40.8870   27.6440 C.3   172  LEU172      0.1693
    140  C         45.3870   40.6340   27.0110 C.2   172  LEU172      0.2592
    141  O         44.7080   41.5560   26.5780 O.2   172  LEU172     -0.2718
    142  CB        47.7520   40.2760   26.6800 C.3   172  LEU172      0.0284
    143  CG        49.2100   40.7310   26.6530 C.3   172  LEU172      0.0019
    144  CD1       49.9570   39.8700   25.6400 C.3   172  LEU172      0.0001
    145  CD2       49.3170   42.2140   26.2820 C.3   172  LEU172      0.0001
    146  N         44.9520   39.3760   26.9420 N.am  173  GLY173     -0.1957
    147  CA        43.7520   39.0390   26.1930 C.3   173  GLY173      0.1869
    148  C         42.4650   39.4820   26.8560 C.2   173  GLY173      0.2309
    149  O         41.5990   40.0330   26.1790 O.2   173  GLY173     -0.2863
    150  N         40.7360   43.0910   26.4150 N.3   176  PHE176     -0.1227
    151  CA        40.3600   43.0600   25.0200 C.3   176  PHE176      0.1736
    152  C         39.0970   42.2300   24.7610 C.2   176  PHE176      0.2595
    153  O         38.1430   42.6920   24.1210 O.2   176  PHE176     -0.2718
    154  CB        41.5570   42.4920   24.2900 C.3   176  PHE176      0.0547
    155  CG        41.8640   43.0520   22.9330 C.ar  176  PHE176     -0.0202
    156  CD1       41.2450   42.5320   21.7960 C.ar  176  PHE176     -0.0042
    157  CD2       42.8080   44.0800   22.8290 C.ar  176  PHE176     -0.0042
    158  CE1       41.5840   43.0480   20.5380 C.ar  176  PHE176     -0.0003
    159  CE2       43.1440   44.5910   21.5690 C.ar  176  PHE176     -0.0003
    160  CZ        42.5320   44.0720   20.4260 C.ar  176  PHE176     -0.0000
    161  N         39.0530   40.9790   25.2240 N.am  177  ASN177     -0.1974
    162  CA        37.9100   40.0850   25.0250 C.3   177  ASN177      0.1688
    163  C         36.6470   40.6080   25.7020 C.2   177  ASN177      0.2292
    164  O         35.5590   40.4810   25.1320 O.2   177  ASN177     -0.2864
    165  CB        38.1840   38.6840   25.5800 C.3   177  ASN177      0.1181
    166  CG        39.3940   37.9510   24.9710 C.2   177  ASN177      0.2629
    167  OD1       40.1760   37.2870   25.6580 O.2   177  ASN177     -0.2716
    168  ND2       39.7100   37.9820   23.6890 N.am  177  ASN177     -0.0877
    169  N         50.9700   35.0550   32.8600 N.3   209  TYR209     -0.1241
    170  CA        52.2850   34.5470   32.4880 C.3   209  TYR209      0.1605
    171  C         53.4050   35.0610   33.3960 C.2   209  TYR209      0.2264
    172  O         53.3600   36.2270   33.8010 O.2   209  TYR209     -0.2867
    173  CB        52.5790   34.9380   31.0470 C.3   209  TYR209      0.0534
    174  CG        51.8250   34.0740   30.0570 C.ar  209  TYR209     -0.0201
    175  CD1       52.3600   32.8300   29.7170 C.ar  209  TYR209     -0.0009
    176  CD2       50.6090   34.4840   29.5090 C.ar  209  TYR209     -0.0009
    177  CE1       51.6790   31.9910   28.8280 C.ar  209  TYR209      0.0417
    178  CE2       49.9190   33.6560   28.6190 C.ar  209  TYR209      0.0417
    179  CZ        50.4620   32.4110   28.2840 C.ar  209  TYR209      0.1957
    180  OH        49.8140   31.5920   27.3850 O.3   209  TYR209     -0.2866
    181  N         50.5060   49.9750   29.2680 N.3   258  ILE258     -0.1231
    182  CA        51.5410   49.2130   29.9360 C.3   258  ILE258      0.1692
    183  C         51.8900   48.1850   28.9000 C.2   258  ILE258      0.2592
    184  O         51.0390   47.4060   28.4700 O.2   258  ILE258     -0.2718
    185  CB        51.0430   48.5080   31.2120 C.3   258  ILE258      0.0266
    186  CG1       50.5190   49.4630   32.2690 C.3   258  ILE258      0.0019
    187  CG2       52.2350   47.7890   31.7890 C.3   258  ILE258      0.0020
    188  CD1       49.9180   48.7400   33.4730 C.3   258  ILE258      0.0001
    189  N         53.1470   48.2160   28.4830 N.am  259  LYS259     -0.1966
    190  CA        53.6840   47.3310   27.4750 C.3   259  LYS259      0.1728
    191  C         54.0860   45.9760   28.0700 C.2   259  LYS259      0.2616
    192  O         54.5830   45.8990   29.1970 O.2   259  LYS259     -0.2715
    193  CB        54.8360   48.1080   26.8740 C.3   259  LYS259      0.0311
    194  CG        54.9020   48.1120   25.3650 C.3   259  LYS259      0.0038
    195  CD        55.2700   46.7040   24.9190 C.3   259  LYS259      0.0206
    196  CE        55.3700   46.5520   23.4150 C.3   259  LYS259      0.1093
    197  NZ        55.4820   45.1360   23.1180 N.3   259  LYS259     -0.1314
    198  N         53.8770   44.8670   27.3630 N.am  260  ALA260     -0.1977
    199  CA        54.2240   43.5350   27.8610 C.3   260  ALA260      0.1597
    200  C         54.3530   42.5250   26.7280 C.2   260  ALA260      0.2287
    201  O         53.5180   42.5190   25.8150 O.2   260  ALA260     -0.2864
    202  CB        53.1580   42.9870   28.7910 C.3   260  ALA260      0.0319
    203  N         54.1100   39.1800   24.3180 N.3   262  VAL262     -0.1231
    204  CA        53.0870   38.1450   24.1560 C.3   262  VAL262      0.1692
    205  C         53.8490   36.8450   24.1180 C.2   262  VAL262      0.2591
    206  O         54.9620   36.7890   23.6040 O.2   262  VAL262     -0.2718
    207  CB        52.2820   38.1830   22.8260 C.3   262  VAL262      0.0266
    208  CG1       51.0370   37.3150   22.9720 C.3   262  VAL262      0.0020
    209  CG2       51.8400   39.5820   22.4840 C.3   262  VAL262      0.0020
    210  N         53.2350   35.7880   24.6310 N.am  263  ALA263     -0.1980
    211  CA        53.8260   34.4670   24.5980 C.3   263  ALA263      0.1597
    212  C         53.2490   33.8690   23.3190 C.2   263  ALA263      0.2287
    213  O         52.0390   34.0060   23.0760 O.2   263  ALA263     -0.2864
    214  CB        53.3640   33.6820   25.8080 C.3   263  ALA263      0.0319
@<TRIPOS>BOND
     1    95    94    2
     2    94    93    1
     3    81    80    2
     4    80    79    1
     5    82    79    1
     6    82    83    1
     7    93    92    1
     8    93    96    1
     9    64    63    2
    10    61    62    1
    11    79    78    1
    12    62    63    1
    13    62    65    1
    14    96    97    1
    15    83    84   ar
    16    83    85   ar
    17    78    72   am
    18    84    86   ar
    19    70    71    1
    20    85    88   ar
    21    85    87   ar
    22    88    90   ar
    23   106   107    1
    24    65    66    1
    25    86    87   ar
    26    72    71    1
    27    72    73    2
    28    66    67    1
    29    97    98   ar
    30    97    99   ar
    31    75    77    1
    32    75    74    1
    33    87    89   ar
    34    71    74    1
    35    58    57    2
    36    90    91   ar
    37   109   108    2
    38    98   100   ar
    39   102    99   ar
    40   102   104   ar
    41    56    55    1
    42    56    57    1
    43    56    59    1
    44    99   101   ar
    45    74    76    1
    46   107   108    1
    47   107   110    1
    48    89    91   ar
    49    67    69   ar
    50    67    68   ar
    51    60    59    1
    52   110   111    1
    53   104   105   ar
    54   100   101   ar
    55   101   103   ar
    56   105   103   ar
    57   111   113    1
    58   111   112    1
    59   128   129   ar
    60   128   126   ar
    61   160   158   ar
    62   160   159   ar
    63   158   156   ar
    64   129   127   ar
    65   126   125   ar
    66    48    47    2
    67    49    50    1
    68    49    46    1
    69   159   157   ar
    70    47    46    1
    71   123   122    2
    72   156   155   ar
    73   127   125   ar
    74   114   115    1
    75    50    51   ar
    76    50    52   ar
    77    46    45    1
    78   125   124    1
    79    51    53   ar
    80   209   207    1
    81    11     9    1
    82    10     9    1
    83     9     8    2
    84   207   208    1
    85   207   204    1
    86   157   155   ar
    87     8     7    1
    88   155   154    1
    89   122   121    1
    90    52    54   ar
    91   213   212    2
    92     7     6    1
    93   197   196    1
    94    53    54   ar
    95   212   211    1
    96   119   118    1
    97   196   195    1
    98   120   121    1
    99   120   116   am
   100    45    41   am
   101   115   118    1
   102   115   116    1
   103   124   121    1
   104   206   205    2
   105   168   166   am
   106   116   117    2
   107   205   204    1
   108   205   210   am
   109   153   152    2
   110   204   203    1
   111   154   151    1
   112    37    36    1
   113     4     3    2
   114    42    41    2
   115     6     5    1
   116   211   210    1
   117   211   214    1
   118    41    40    1
   119    18    16    1
   120   152   151    1
   121   152   161   am
   122     5     2    1
   123   195   194    1
   124    17    16    1
   125   166   165    1
   126   166   167    2
   127   151   150    1
   128   162   161    1
   129   162   165    1
   130   162   163    1
   131   164   163    2
   132    13    16    1
   133    13    12    1
   134    13    14    1
   135     3    12   am
   136     3     2    1
   137    36    38    1
   138    36    35    2
   139   194   193    1
   140   144   143    1
   141    34    35    1
   142    34    33    1
   143   201   200    2
   144     2     1    1
   145    40    43    1
   146    40    39    1
   147   149   148    2
   148   147   148    1
   149   147   146    1
   150    33    32    1
   151   145   143    1
   152    43    44    1
   153    14    15    1
   154   141   140    2
   155   143   142    1
   156   142   139    1
   157   200   199    1
   158   193   190    1
   159   146   140   am
   160    39    30   am
   161    31    30    2
   162   140   139    1
   163    30    29    1
   164   198   199    1
   165   198   191   am
   166   180   179    1
   167   190   191    1
   168   190   189    1
   169   137   135   ar
   170   139   138    1
   171    32    29    1
   172   199   202    1
   173   191   192    2
   174   179   178   ar
   175   179   177   ar
   176    29    28    1
   177   134   135    1
   178   134   131    1
   179   184   183    2
   180   135   136   ar
   181   189   183   am
   182   178   176   ar
   183   177   175   ar
   184   183   182    1
   185    26    27    1
   186    26    25    1
   187   130   131    1
   188   181   182    1
   189   133   132    2
   190   176   174   ar
   191    28    21   am
   192   131   132    1
   193   175   174   ar
   194   182   185    1
   195   174   173    1
   196    24    25    1
   197    24    23    1
   198    22    21    2
   199    21    20    1
   200   173   170    1
   201   185   187    1
   202   185   186    1
   203    23    20    1
   204    20    19    1
   205   186   188    1
   206   170   169    1
   207   170   171    1
   208   171   172    2
