@<TRIPOS>MOLECULE
tmp/2kdhA00.pdb
 122 113 0 0 0
SMALL
GASTEIGER

@<TRIPOS>ATOM
      1  N         13.0260    8.7720    5.2210 N.3     1  MET1       -0.1230
      2  CA        12.5440    7.8270    4.1720 C.3     1  MET1        0.1702
      3  C         11.0140    7.8080    4.1400 C.2     1  MET1        0.2592
      4  O         10.3590    8.1010    5.1210 O.2     1  MET1       -0.2718
      5  CB        13.0880    6.4600    4.5900 C.3     1  MET1        0.0401
      6  CG        13.7350    5.7770    3.3840 C.3     1  MET1        0.0596
      7  SD        15.5360    5.8080    3.5680 S.3     1  MET1       -0.1393
      8  CE        15.8990    4.4090    2.4800 C.3     1  MET1        0.0692
      9  N         10.4390    7.4640    3.0200 N.am    2  GLY2       -0.1957
     10  CA         8.9520    7.4250    2.9260 C.3     2  GLY2        0.1869
     11  C          8.5180    6.1470    2.2070 C.2     2  GLY2        0.2309
     12  O          8.9100    5.8900    1.0860 O.2     2  GLY2       -0.2863
     13  N          6.9890   12.1360    5.6220 N.3    11  LEU11      -0.1245
     14  CA         7.8500   12.4850    4.4580 C.3    11  LEU11       0.1561
     15  C          7.2320   13.6490    3.6790 C.2    11  LEU11       0.2260
     16  O          7.9220   14.4160    3.0380 O.2    11  LEU11      -0.2867
     17  CB         7.8850   11.2200    3.6000 C.3    11  LEU11       0.0270
     18  CG         8.6180   11.5100    2.2900 C.3    11  LEU11       0.0019
     19  CD1       10.0850   11.1010    2.4240 C.3    11  LEU11       0.0001
     20  CD2        7.9670   10.7130    1.1580 C.3    11  LEU11       0.0001
     21  N          8.8910   17.5830    3.2080 N.3    15  PHE15      -0.1241
     22  CA         9.3350   18.1860    1.9180 C.3    15  PHE15       0.1605
     23  C          8.8500   19.6340    1.8130 C.2    15  PHE15       0.2264
     24  O          9.5560   20.5010    1.3390 O.2    15  PHE15      -0.2867
     25  CB         8.6890   17.3200    0.8360 C.3    15  PHE15       0.0534
     26  CG         9.5540   16.1100    0.5830 C.ar   15  PHE15      -0.0203
     27  CD1       10.9330   16.2630    0.4000 C.ar   15  PHE15      -0.0042
     28  CD2        8.9790   14.8350    0.5320 C.ar   15  PHE15      -0.0042
     29  CE1       11.7380   15.1420    0.1670 C.ar   15  PHE15      -0.0003
     30  CE2        9.7830   13.7130    0.2990 C.ar   15  PHE15      -0.0003
     31  CZ        11.1630   13.8670    0.1160 C.ar   15  PHE15      -0.0000
     32  N         11.6650   20.9630   -3.9440 N.3    31  MET31      -0.1230
     33  CA        11.5270   19.7020   -3.1600 C.3    31  MET31       0.1702
     34  C         12.4500   18.6260   -3.7390 C.2    31  MET31       0.2592
     35  O         13.0460   17.8510   -3.0180 O.2    31  MET31      -0.2718
     36  CB        10.0590   19.2990   -3.3150 C.3    31  MET31       0.0401
     37  CG         9.8860   17.8280   -2.9340 C.3    31  MET31       0.0596
     38  SD         8.1320   17.3880   -3.0110 S.3    31  MET31      -0.1393
     39  CE         8.2930   15.6990   -2.3800 C.3    31  MET31       0.0692
     40  N         12.5750   18.5780   -5.0370 N.am   32  LEU32      -0.1980
     41  CA        13.4620   17.5580   -5.6670 C.3    32  LEU32       0.1596
     42  C         14.8860   18.1080   -5.7920 C.2    32  LEU32       0.2287
     43  O         15.8160   17.3900   -6.0990 O.2    32  LEU32      -0.2864
     44  CB        12.8580   17.3120   -7.0510 C.3    32  LEU32       0.0297
     45  CG        11.9900   16.0530   -7.0180 C.3    32  LEU32       0.0022
     46  CD1       12.8850   14.8150   -6.9440 C.3    32  LEU32       0.0001
     47  CD2       11.0760   16.0940   -5.7910 C.3    32  LEU32       0.0001
     48  N         17.7590   16.3930   -4.5660 N.3    35  THR35      -0.1218
     49  CA        18.1570   15.2020   -5.3690 C.3    35  THR35       0.1862
     50  C         19.0340   15.6280   -6.5500 C.2    35  THR35       0.2287
     51  O         19.7880   14.8430   -7.0910 O.2    35  THR35      -0.2866
     52  CB        16.8370   14.6110   -5.8690 C.3    35  THR35       0.1770
     53  OG1       15.9690   14.3970   -4.7660 O.3    35  THR35      -0.2211
     54  CG2       17.1020   13.2820   -6.5760 C.3    35  THR35       0.0375
     55  N         17.6540   17.7700   -9.2030 N.3    37  GLU37      -0.1245
     56  CA        16.7550   17.8600  -10.3880 C.3    37  GLU37       0.1567
     57  C         17.0900   19.1010  -11.2170 C.2    37  GLU37       0.2260
     58  O         16.5810   20.1770  -10.9750 O.2    37  GLU37      -0.2867
     59  CB        15.3450   17.9710   -9.8060 C.3    37  GLU37       0.0388
     60  CG        15.2400   19.2440   -8.9620 C.3    37  GLU37       0.1160
     61  CD        14.2540   20.2130   -9.6170 C.2    37  GLU37       0.3649
     62  OE1       13.3430   19.7430  -10.2790 O.co2  37  GLU37      -0.2457
     63  OE2       14.4260   21.4080   -9.4450 O.co2  37  GLU37      -0.2457
     64  N         16.3850   20.7070  -14.4270 N.3    39  ILE39      -0.1245
     65  CA        15.5810   20.6760  -15.6800 C.3    39  ILE39       0.1561
     66  C         15.0300   22.0690  -15.9930 C.2    39  ILE39       0.2260
     67  O         15.0090   22.9430  -15.1500 O.2    39  ILE39      -0.2867
     68  CB        14.4450   19.6970  -15.3870 C.3    39  ILE39       0.0252
     69  CG1       13.4410   20.3540  -14.4340 C.3    39  ILE39       0.0019
     70  CG2       15.0170   18.4360  -14.7380 C.3    39  ILE39       0.0019
     71  CD1       12.4900   19.2920  -13.8770 C.3    39  ILE39       0.0001
     72  N          5.6540   17.5650  -13.3400 N.3    47  LEU47      -0.1245
     73  CA         5.5680   16.7560  -12.0900 C.3    47  LEU47       0.1561
     74  C          4.2900   17.1010  -11.3210 C.2    47  LEU47       0.2260
     75  O          3.6710   16.2520  -10.7110 O.2    47  LEU47      -0.2867
     76  CB         6.8010   17.1530  -11.2780 C.3    47  LEU47       0.0270
     77  CG         8.0050   16.3330  -11.7390 C.3    47  LEU47       0.0019
     78  CD1        9.1710   17.2710  -12.0580 C.3    47  LEU47       0.0001
     79  CD2        8.4180   15.3670  -10.6250 C.3    47  LEU47       0.0001
     80  N          0.8820   15.3130  -11.9480 N.3    50  ASP50      -0.1239
     81  CA         0.6670   14.0070  -11.2580 C.3    50  ASP50       0.1674
     82  C          0.3770   14.2300   -9.7710 C.2    50  ASP50       0.2266
     83  O         -0.3940   13.5120   -9.1660 O.2    50  ASP50      -0.2867
     84  CB         1.9790   13.2430  -11.4390 C.3    50  ASP50       0.1410
     85  CG         1.7710   12.1040  -12.4380 C.2    50  ASP50       0.3668
     86  OD1        1.6540   12.3910  -13.6180 O.co2  50  ASP50      -0.2456
     87  OD2        1.7310   10.9640  -12.0060 O.co2  50  ASP50      -0.2456
     88  N          1.1130   10.9800   -6.6030 N.3    67  PHE67      -0.1227
     89  CA         2.4920   11.2800   -7.0860 C.3    67  PHE67       0.1736
     90  C          3.4350   10.1250   -6.7360 C.2    67  PHE67       0.2595
     91  O          4.2250    9.6880   -7.5480 O.2    67  PHE67      -0.2718
     92  CB         2.9010   12.5530   -6.3450 C.3    67  PHE67       0.0547
     93  CG         4.2360   13.0340   -6.8630 C.ar   67  PHE67      -0.0202
     94  CD1        4.3770   13.3890   -8.2100 C.ar   67  PHE67      -0.0042
     95  CD2        5.3320   13.1240   -5.9970 C.ar   67  PHE67      -0.0042
     96  CE1        5.6140   13.8350   -8.6910 C.ar   67  PHE67      -0.0003
     97  CE2        6.5690   13.5700   -6.4780 C.ar   67  PHE67      -0.0003
     98  CZ         6.7100   13.9250   -7.8250 C.ar   67  PHE67      -0.0000
     99  N          3.3560    9.6280   -5.5320 N.am   68  MET68      -0.1979
    100  CA         4.2460    8.5010   -5.1300 C.3    68  MET68       0.1605
    101  C          3.6190    7.1640   -5.5350 C.2    68  MET68       0.2287
    102  O          4.2250    6.3660   -6.2210 O.2    68  MET68      -0.2864
    103  CB         4.3520    8.6050   -3.6080 C.3    68  MET68       0.0413
    104  CG         4.6390   10.0560   -3.2140 C.3    68  MET68       0.0598
    105  SD         6.1480   10.6170   -4.0400 S.3    68  MET68      -0.1393
    106  CE         7.2440   10.5120   -2.6040 C.3    68  MET68       0.0692
    107  N          6.5090    4.5030   -5.3930 N.3    71  VAL71      -0.1231
    108  CA         7.5370    4.5790   -6.4710 C.3    71  VAL71       0.1692
    109  C          8.9430    4.5310   -5.8660 C.2    71  VAL71       0.2591
    110  O          9.1120    4.5480   -4.6630 O.2    71  VAL71      -0.2718
    111  CB         7.2930    5.9240   -7.1560 C.3    71  VAL71       0.0266
    112  CG1        7.6060    7.0590   -6.1800 C.3    71  VAL71       0.0020
    113  CG2        8.2000    6.0420   -8.3820 C.3    71  VAL71       0.0020
    114  N          9.9520    4.4700   -6.6920 N.am   72  GLU72      -0.1979
    115  CA        11.3450    4.4220   -6.1640 C.3    72  GLU72       0.1602
    116  C         12.3510    4.4940   -7.3160 C.2    72  GLU72       0.2287
    117  O         12.0360    3.9940   -8.3830 O.2    72  GLU72      -0.2864
    118  CB        11.4500    3.0770   -5.4440 C.3    72  GLU72       0.0415
    119  CG        12.1520    3.2710   -4.0990 C.3    72  GLU72       0.1163
    120  CD        12.4420    1.9070   -3.4710 C.2    72  GLU72       0.3649
    121  OE1       12.2380    0.9110   -4.1450 O.co2  72  GLU72      -0.2457
    122  OE2       12.8620    1.8820   -2.3250 O.co2  72  GLU72      -0.2457
@<TRIPOS>BOND
     1    66    65    1
     2    66    67    2
     3    65    68    1
     4    65    64    1
     5    68    70    1
     6    68    69    1
     7    69    71    1
     8    86    85   ar
     9    72    73    1
    10    85    87   ar
    11    85    84    1
    12    73    74    1
    13    73    76    1
    14    78    77    1
    15    80    81    1
    16    77    76    1
    17    77    79    1
    18    84    81    1
    19    74    75    2
    20    81    82    1
    21    57    58    2
    22    57    56    1
    23    56    59    1
    24    56    55    1
    25    62    61   ar
    26    59    60    1
    27    82    83    2
    28    61    63   ar
    29    61    60    1
    30    96    94   ar
    31    96    98   ar
    32   117   116    2
    33   113   111    1
    34    94    93   ar
    35    98    97   ar
    36    91    90    2
    37   116   115    1
    38   111   108    1
    39   111   112    1
    40    51    50    2
    41    89    90    1
    42    89    88    1
    43    89    92    1
    44    44    45    1
    45    44    41    1
    46    45    46    1
    47    45    47    1
    48    93    92    1
    49    93    95   ar
    50    90    99   am
    51   114   115    1
    52   114   109   am
    53    54    52    1
    54    50    49    1
    55    97    95   ar
    56   108   109    1
    57   108   107    1
    58   102   101    2
    59   115   118    1
    60    43    42    2
    61    52    49    1
    62    52    53    1
    63   109   110    2
    64    42    41    1
    65    41    40    1
    66   101   100    1
    67    99   100    1
    68   118   119    1
    69    49    48    1
    70   100   103    1
    71    40    34   am
    72   121   120   ar
    73   119   120    1
    74   105   104    1
    75   105   106    1
    76    32    33    1
    77    34    33    1
    78    34    35    2
    79   103   104    1
    80   120   122   ar
    81    36    33    1
    82    36    37    1
    83    38    37    1
    84    38    39    1
    85    31    29   ar
    86    31    30   ar
    87    29    27   ar
    88    30    28   ar
    89    27    26   ar
    90    28    26   ar
    91    26    25    1
    92    25    22    1
    93    12    11    2
    94    20    18    1
    95    24    23    2
    96    23    22    1
    97    22    21    1
    98    11    10    1
    99    18    19    1
   100    18    17    1
   101     8     7    1
   102    10     9    1
   103     9     3   am
   104    16    15    2
   105     6     7    1
   106     6     5    1
   107    17    14    1
   108    15    14    1
   109     3     2    1
   110     3     4    2
   111     2     5    1
   112     2     1    1
   113    14    13    1
