@<TRIPOS>MOLECULE
tmp/2ke1A00.pdb
 178 176 0 0 0
SMALL
GASTEIGER

@<TRIPOS>ATOM
      1  N          2.3530  -13.5850    3.4170 N.3     5  GLN5       -0.1231
      2  CA         2.2610  -12.5210    2.4280 C.3     5  GLN5        0.1698
      3  C          3.6320  -12.1380    1.8880 C.2     5  GLN5        0.2592
      4  O          4.6690  -12.4980    2.4540 O.2     5  GLN5       -0.2718
      5  CB         1.5760  -11.2910    3.0280 C.3     5  GLN5        0.0381
      6  CG         0.0930  -11.4970    3.2960 C.3     5  GLN5        0.0905
      7  CD        -0.6830  -11.7990    2.0280 C.2     5  GLN5        0.2608
      8  OE1       -0.8230  -12.9570    1.6300 O.2     5  GLN5       -0.2717
      9  NE2       -1.1970  -10.7620    1.3830 N.am    5  GLN5       -0.0878
     10  N          3.6190  -11.3850    0.8000 N.am    6  LYS6       -0.1966
     11  CA         4.8300  -10.9340    0.1460 C.3     6  LYS6        0.1728
     12  C          4.7680   -9.4280   -0.0150 C.2     6  LYS6        0.2616
     13  O          3.7040   -8.8680   -0.2590 O.2     6  LYS6       -0.2715
     14  CB         4.9930  -11.6230   -1.2150 C.3     6  LYS6        0.0311
     15  CG         6.0390  -10.9910   -2.1210 C.3     6  LYS6        0.0038
     16  CD         7.4540  -11.1680   -1.5890 C.3     6  LYS6        0.0206
     17  CE         8.4690  -10.5430   -2.5310 C.3     6  LYS6        0.1093
     18  NZ         9.8630  -10.6690   -2.0340 N.3     6  LYS6       -0.1314
     19  N          5.8990   -8.7790    0.1490 N.am    7  ASN7       -0.1958
     20  CA         5.9780   -7.3380    0.0490 C.3     7  ASN7        0.1819
     21  C          7.0940   -6.9540   -0.8960 C.2     7  ASN7        0.2621
     22  O          8.1830   -7.5290   -0.8480 O.2     7  ASN7       -0.2715
     23  CB         6.2230   -6.7340    1.4280 C.3     7  ASN7        0.1195
     24  CG         7.1200   -7.6040    2.2920 C.2     7  ASN7        0.2630
     25  OD1        8.3410   -7.4780    2.2600 O.2     7  ASN7       -0.2716
     26  ND2        6.5220   -8.5030    3.0610 N.am    7  ASN7       -0.0877
     27  N          6.8060   -6.0090   -1.7680 N.am    8  GLU8       -0.1963
     28  CA         7.7890   -5.5280   -2.7210 C.3     8  GLU8        0.1733
     29  C          8.8570   -4.7140   -2.0180 C.2     8  GLU8        0.2616
     30  O          8.5560   -3.8970   -1.1500 O.2     8  GLU8       -0.2715
     31  CB         7.1370   -4.6820   -3.8150 C.3     8  GLU8        0.0429
     32  CG         6.1260   -5.4390   -4.6500 C.3     8  GLU8        0.1163
     33  CD         5.8790   -4.7790   -5.9870 C.2     8  GLU8        0.3649
     34  OE1        5.1440   -3.7750   -6.0440 O.co2   8  GLU8       -0.2457
     35  OE2        6.4430   -5.2580   -6.9920 O.co2   8  GLU8       -0.2457
     36  N         10.1030   -4.9490   -2.3910 N.am    9  ASP9       -0.1957
     37  CA        11.2190   -4.2000   -1.8340 C.3     9  ASP9        0.1840
     38  C         11.4270   -2.9370   -2.6460 C.2     9  ASP9        0.2621
     39  O         12.3260   -2.1390   -2.3650 O.2     9  ASP9       -0.2715
     40  CB        12.5050   -5.0280   -1.8360 C.3     9  ASP9        0.1450
     41  CG        12.3340   -6.4050   -1.2250 C.2     9  ASP9        0.3671
     42  OD1       12.0170   -6.5020   -0.0180 O.co2   9  ASP9       -0.2456
     43  OD2       12.5220   -7.4050   -1.9550 O.co2   9  ASP9       -0.2456
     44  N         10.5750   -2.7590   -3.6500 N.am   10  GLU10      -0.1977
     45  CA        10.6140   -1.5920   -4.5060 C.3    10  GLU10       0.1602
     46  C          9.2360   -0.9410   -4.5010 C.2    10  GLU10       0.2287
     47  O          8.2170   -1.6270   -4.5510 O.2    10  GLU10      -0.2864
     48  CB        10.9670   -1.9660   -5.9420 C.3    10  GLU10       0.0415
     49  CG        11.9240   -3.1430   -6.0970 C.3    10  GLU10       0.1163
     50  CD        13.3380   -2.8390   -5.6460 C.2    10  GLU10       0.3649
     51  OE1       14.0020   -1.9850   -6.2780 O.co2  10  GLU10      -0.2457
     52  OE2       13.8120   -3.4790   -4.6840 O.co2  10  GLU10      -0.2457
     53  N          9.6980    2.3730   -8.2060 N.3    15  ARG15      -0.1231
     54  CA        10.4740    1.1340   -8.0620 C.3    15  ARG15       0.1694
     55  C         11.7840    1.3740   -7.3020 C.2    15  ARG15       0.2592
     56  O         12.8040    0.7460   -7.5840 O.2    15  ARG15      -0.2718
     57  CB        10.7500    0.4830   -9.4270 C.3    15  ARG15       0.0321
     58  CG         9.4970    0.2470  -10.2680 C.3    15  ARG15       0.0489
     59  CD         8.4110   -0.4950   -9.4970 C.3    15  ARG15       0.2205
     60  NE         8.8270   -1.8260   -9.0450 N.pl3  15  ARG15      -0.0865
     61  CZ         8.0490   -2.6570   -8.3430 C.cat  15  ARG15       0.5346
     62  NH1        6.7810   -2.3480   -8.0970 N.pl3  15  ARG15       0.1354
     63  NH2        8.5230   -3.8230   -7.9270 N.pl3  15  ARG15       0.1354
     64  N         11.7380    2.2850   -6.3400 N.am   16  ASP16      -0.1960
     65  CA        12.8860    2.5760   -5.4850 C.3    16  ASP16       0.1840
     66  C         12.6790    1.9110   -4.1260 C.2    16  ASP16       0.2623
     67  O         11.5670    1.4810   -3.8160 O.2    16  ASP16      -0.2715
     68  CB        13.0480    4.0930   -5.3490 C.3    16  ASP16       0.1450
     69  CG        14.2020    4.5020   -4.4550 C.2    16  ASP16       0.3671
     70  OD1       15.2460    3.8290   -4.4900 O.co2  16  ASP16      -0.2456
     71  OD2       14.0680    5.4950   -3.7130 O.co2  16  ASP16      -0.2456
     72  N         13.7270    1.8250   -3.3190 N.am   17  GLY17      -0.1940
     73  CA        13.6290    1.1120   -2.0630 C.3    17  GLY17       0.2014
     74  C         13.6590    2.0650   -0.8950 C.2    17  GLY17       0.2639
     75  O         13.5070    3.2630   -1.0860 O.2    17  GLY17      -0.2714
     76  N         13.8540    1.5550    0.3070 N.am   18  GLY18      -0.1939
     77  CA        13.9650    2.4260    1.4620 C.3    18  GLY18       0.2014
     78  C         12.7260    2.4100    2.3250 C.2    18  GLY18       0.2639
     79  O         12.2820    1.3460    2.7600 O.2    18  GLY18      -0.2714
     80  N         12.1740    3.5910    2.5780 N.am   19  GLU19      -0.1963
     81  CA        10.9970    3.7270    3.4240 C.3    19  GLU19       0.1733
     82  C          9.7410    3.2970    2.6740 C.2    19  GLU19       0.2616
     83  O          9.0630    4.1090    2.0410 O.2    19  GLU19      -0.2715
     84  CB        10.8530    5.1710    3.9040 C.3    19  GLU19       0.0429
     85  CG        12.1320    5.7480    4.4880 C.3    19  GLU19       0.1163
     86  CD        12.8350    6.7000    3.5390 C.2    19  GLU19       0.3649
     87  OE1       13.3390    6.2460    2.4870 O.co2  19  GLU19      -0.2457
     88  OE2       12.8840    7.9110    3.8540 O.co2  19  GLU19      -0.2457
     89  N          9.4430    2.0130    2.7590 N.am   20  LEU20      -0.1963
     90  CA         8.3150    1.4380    2.0480 C.3    20  LEU20       0.1728
     91  C          7.1450    1.1660    2.9820 C.2    20  LEU20       0.2616
     92  O          7.3260    0.8490    4.1550 O.2    20  LEU20      -0.2715
     93  CB         8.7280    0.1360    1.3770 C.3    20  LEU20       0.0311
     94  CG         9.8250    0.2510    0.3250 C.3    20  LEU20       0.0022
     95  CD1       10.3390   -1.1270   -0.0350 C.3    20  LEU20       0.0001
     96  CD2        9.3070    0.9630   -0.9150 C.3    20  LEU20       0.0001
     97  N          5.9480    1.2900    2.4430 N.am   21  ILE21      -0.1963
     98  CA         4.7300    0.9370    3.1460 C.3    21  ILE21       0.1727
     99  C          3.8860    0.0400    2.2390 C.2    21  ILE21       0.2616
    100  O          3.3970    0.4670    1.1930 O.2    21  ILE21      -0.2715
    101  CB         3.9460    2.1980    3.5910 C.3    21  ILE21       0.0290
    102  CG1        2.6040    1.8210    4.2290 C.3    21  ILE21       0.0022
    103  CG2        3.7430    3.1620    2.4270 C.3    21  ILE21       0.0023
    104  CD1        1.8470    3.0140    4.7680 C.3    21  ILE21       0.0001
    105  N          3.7680   -1.2210    2.6240 N.am   22  CYS22      -0.1954
    106  CA         3.1470   -2.2210    1.7710 C.3    22  CYS22       0.1843
    107  C          1.7110   -2.4920    2.1900 C.2    22  CYS22       0.2626
    108  O          1.3560   -2.4020    3.3700 O.2    22  CYS22      -0.2714
    109  CB         3.9670   -3.5100    1.8040 C.3    22  CYS22       0.0997
    110  SG         3.3040   -4.8490    0.7910 S.3    22  CYS22      -0.0797
    111  N          0.8890   -2.7980    1.1960 N.am   23  CYS23      -0.1954
    112  CA        -0.5160   -3.1000    1.4060 C.3    23  CYS23       0.1843
    113  C         -0.7060   -4.4930    2.0040 C.2    23  CYS23       0.2625
    114  O          0.1310   -5.3810    1.8210 O.2    23  CYS23      -0.2714
    115  CB        -1.2730   -2.9760    0.0760 C.3    23  CYS23       0.0997
    116  SG        -3.0380   -3.4260    0.1530 S.3    23  CYS23      -0.0797
    117  N         -1.7840   -4.6640    2.7540 N.am   24  ASP24      -0.1971
    118  CA        -2.1360   -5.9680    3.3020 C.3    24  ASP24       0.1709
    119  C         -2.3760   -6.9860    2.1870 C.2    24  ASP24       0.2293
    120  O         -1.5940   -7.9220    2.0100 O.2    24  ASP24      -0.2864
    121  CB        -3.3580   -5.8880    4.2180 C.3    24  ASP24       0.1436
    122  CG        -3.8260   -7.2630    4.6540 C.2    24  ASP24       0.3671
    123  OD1       -3.0770   -7.9490    5.3770 O.co2  24  ASP24      -0.2456
    124  OD2       -4.9430   -7.6650    4.2600 O.co2  24  ASP24      -0.2456
    125  N          4.5410   -2.2380   -2.3110 N.3    29  ALA29      -0.1245
    126  CA         4.9930   -1.3290   -1.2750 C.3    29  ALA29       0.1562
    127  C          5.2250    0.0410   -1.8970 C.2    29  ALA29       0.2260
    128  O          5.5860    0.1370   -3.0670 O.2    29  ALA29      -0.2867
    129  CB         6.2580   -1.8500   -0.6110 C.3    29  ALA29       0.0290
    130  N          6.3860    4.4550   -1.3290 N.3    31  HIS31      -0.1241
    131  CA         7.0440    5.4660   -0.5190 C.3    31  HIS31       0.1621
    132  C          6.0050    6.4090    0.0510 C.2    31  HIS31       0.2264
    133  O          5.0040    6.6940   -0.6130 O.2    31  HIS31      -0.2867
    134  CB         8.0650    6.2640   -1.3290 C.3    31  HIS31       0.0745
    135  CG         9.3010    5.4970   -1.6570 C.ar   31  HIS31       0.0817
    136  ND1        9.5870    5.1280   -2.9430 N.ar   31  HIS31      -0.2268
    137  CD2       10.2860    5.0570   -0.8390 C.ar   31  HIS31       0.1154
    138  CE1       10.7310    4.4720   -2.8840 C.ar   31  HIS31       0.1986
    139  NE2       11.1900    4.4080   -1.6310 N.ar   31  HIS31      -0.2212
    140  N          3.1390    6.3260    9.5300 N.3    42  ILE42      -0.1231
    141  CA         2.7320    4.9480    9.2980 C.3    42  ILE42       0.1678
    142  C          1.4110    4.6250    9.9960 C.2    42  ILE42       0.2434
    143  O          1.2410    4.8900   11.1890 O.2    42  ILE42      -0.2733
    144  CB         3.8260    3.9540    9.7520 C.3    42  ILE42       0.0265
    145  CG1        5.0860    4.1400    8.9030 C.3    42  ILE42       0.0019
    146  CG2        3.3230    2.5190    9.6620 C.3    42  ILE42       0.0020
    147  CD1        4.8490    3.9500    7.4190 C.3    42  ILE42       0.0001
    148  N          0.4590    4.0550    9.2390 N.am   43  PRO43      -0.2718
    149  CA        -0.8540    3.6770    9.7400 C.3    43  PRO43       0.1535
    150  C         -0.8500    2.3290   10.4470 C.2    43  PRO43       0.2599
    151  O         -0.2670    1.3580    9.9600 O.2    43  PRO43      -0.2715
    152  CB        -1.7200    3.5890    8.4790 C.3    43  PRO43       0.0310
    153  CG        -0.8110    3.8190    7.3130 C.3    43  PRO43       0.0237
    154  CD         0.5950    3.7340    7.8250 C.3    43  PRO43       0.0939
    155  N         -1.5280    2.2650   11.5770 N.am   44  SER44      -0.1936
    156  CA        -1.6230    1.0340   12.3410 C.3    44  SER44       0.2055
    157  C         -2.8750    0.2690   11.9270 C.2    44  SER44       0.2643
    158  O         -3.9990    0.7340   12.1360 O.2    44  SER44      -0.2714
    159  CB        -1.6480    1.3470   13.8410 C.3    44  SER44       0.2130
    160  OG        -1.6910    0.1620   14.6220 O.3    44  SER44      -0.2179
    161  N         -2.6800   -0.8860   11.3130 N.am   45  GLY45      -0.1954
    162  CA        -3.7970   -1.6560   10.8190 C.3    45  GLY45       0.1869
    163  C         -3.4870   -2.2950    9.4880 C.2    45  GLY45       0.2309
    164  O         -2.3320   -2.3170    9.0490 O.2    45  GLY45      -0.2863
    165  N         -3.3370   -1.8400    5.9500 N.3    47  TRP47      -0.1241
    166  CA        -3.2780   -0.7320    5.0150 C.3    47  TRP47       0.1605
    167  C         -3.5470   -1.2220    3.6020 C.2    47  TRP47       0.2264
    168  O         -3.1320   -2.3200    3.2270 O.2    47  TRP47      -0.2867
    169  CB        -1.9160   -0.0360    5.0890 C.3    47  TRP47       0.0550
    170  CG        -1.8170    1.1580    4.1890 C.ar   47  TRP47       0.0003
    171  CD1       -2.2720    2.4190    4.4460 C.ar   47  TRP47       0.0946
    172  CD2       -1.2390    1.2000    2.8820 C.ar   47  TRP47       0.0152
    173  NE1       -2.0160    3.2400    3.3760 N.ar   47  TRP47      -0.2442
    174  CE2       -1.3810    2.5150    2.4040 C.ar   47  TRP47       0.0810
    175  CE3       -0.6170    0.2510    2.0700 C.ar   47  TRP47       0.0012
    176  CZ2       -0.9250    2.9020    1.1470 C.ar   47  TRP47       0.0191
    177  CZ3       -0.1630    0.6370    0.8250 C.ar   47  TRP47       0.0001
    178  CH2       -0.3190    1.9510    0.3750 C.ar   47  TRP47       0.0015
@<TRIPOS>BOND
     1    58    59    1
     2    58    57    1
     3    59    60    1
     4    57    54    1
     5    60    61    2
     6    61    62    1
     7    61    63    1
     8    53    54    1
     9    54    55    1
    10    56    55    2
    11    55    64   am
    12    35    33   ar
    13    64    65    1
    14    51    50   ar
    15    49    48    1
    16    49    50    1
    17    34    33   ar
    18    33    32    1
    19    48    45    1
    20    50    52   ar
    21    65    68    1
    22    65    66    1
    23    68    69    1
    24    32    31    1
    25    47    46    2
    26    45    46    1
    27    45    44    1
    28    70    69   ar
    29    69    71   ar
    30    66    67    2
    31    66    72   am
    32    31    28    1
    33    44    38   am
    34    72    73    1
    35   128   127    2
    36   136   138   ar
    37   136   135   ar
    38   138   139   ar
    39    28    29    1
    40    28    27    1
    41    38    39    2
    42    38    37    1
    43    17    18    1
    44    17    16    1
    45    36    29   am
    46    36    37    1
    47   125   126    1
    48    15    16    1
    49    15    14    1
    50    73    74    1
    51    29    30    2
    52    43    41   ar
    53   127   126    1
    54    40    37    1
    55    40    41    1
    56    27    21   am
    57   135   134    1
    58   135   137   ar
    59   139   137   ar
    60   134   131    1
    61   130   131    1
    62   126   129    1
    63    41    42   ar
    64    14    11    1
    65    75    74    2
    66    96    94    1
    67    21    22    2
    68    21    20    1
    69    74    76   am
    70   133   132    2
    71   131   132    1
    72    13    12    2
    73    95    94    1
    74    12    11    1
    75    12    19   am
    76    20    19    1
    77    20    23    1
    78   115   116    1
    79   115   112    1
    80    11    10    1
    81    76    77    1
    82    94    93    1
    83   178   177   ar
    84   178   176   ar
    85   110   109    1
    86    10     3   am
    87   177   175   ar
    88   176   174   ar
    89   100    99    2
    90   111   112    1
    91   111   107   am
    92    93    90    1
    93     9     7   am
    94   112   113    1
    95    23    24    1
    96    77    78    1
    97     8     7    2
    98   106   109    1
    99   106   107    1
   100   106   105    1
   101   114   113    2
   102     3     2    1
   103     3     4    2
   104   113   117   am
   105   120   119    2
   106     7     6    1
   107    83    82    2
   108    90    89    1
   109    90    91    1
   110   175   172   ar
   111   119   118    1
   112   107   108    2
   113    99   105   am
   114    99    98    1
   115    25    24    2
   116    24    26   am
   117    78    80   am
   118    78    79    2
   119   174   172   ar
   120   174   173   ar
   121   103   101    1
   122     2     5    1
   123     2     1    1
   124    97    91   am
   125    97    98    1
   126    87    86   ar
   127    80    81    1
   128    82    89   am
   129    82    81    1
   130   117   118    1
   131   172   170   ar
   132    91    92    2
   133     5     6    1
   134    98   101    1
   135   168   167    2
   136   118   121    1
   137   173   171   ar
   138    81    84    1
   139    86    88   ar
   140    86    85    1
   141   101   102    1
   142   167   166    1
   143    84    85    1
   144   170   171   ar
   145   170   169    1
   146   121   122    1
   147   102   104    1
   148   124   122   ar
   149   122   123   ar
   150   166   169    1
   151   166   165    1
   152   153   154    1
   153   153   152    1
   154   147   145    1
   155   154   148    1
   156   152   149    1
   157   145   144    1
   158   164   163    2
   159   148   149    1
   160   148   142   am
   161   141   140    1
   162   141   144    1
   163   141   142    1
   164   163   162    1
   165   146   144    1
   166   149   150    1
   167   151   150    2
   168   142   143    2
   169   150   155   am
   170   162   161    1
   171   161   157   am
   172   155   156    1
   173   157   158    2
   174   157   156    1
   175   156   159    1
   176   159   160    1
