@<TRIPOS>MOLECULE
tmp/2kfxA00.pdb
 127 120 0 0 0
SMALL
GASTEIGER

@<TRIPOS>ATOM
      1  N         78.4340   -1.4730  -10.2710 N.3    20  PHE20      -0.1241
      2  CA        79.3320   -1.5530   -9.1250 C.3    20  PHE20       0.1605
      3  C         80.7290   -1.9760   -9.5690 C.2    20  PHE20       0.2264
      4  O         81.7100   -1.2820   -9.3040 O.2    20  PHE20      -0.2867
      5  CB        78.7920   -2.5560   -8.1040 C.3    20  PHE20       0.0534
      6  CG        77.5040   -2.0290   -7.5150 C.ar   20  PHE20      -0.0203
      7  CD1       77.5360   -0.9750   -6.5950 C.ar   20  PHE20      -0.0042
      8  CD2       76.2770   -2.5940   -7.8880 C.ar   20  PHE20      -0.0042
      9  CE1       76.3440   -0.4850   -6.0480 C.ar   20  PHE20      -0.0003
     10  CE2       75.0850   -2.1040   -7.3420 C.ar   20  PHE20      -0.0003
     11  CZ        75.1190   -1.0490   -6.4220 C.ar   20  PHE20      -0.0000
     12  N         82.9060    0.5100  -10.4890 N.3    23  ALA23      -0.1231
     13  CA        83.4040    1.3620   -9.4160 C.3    23  ALA23       0.1694
     14  C         84.7390    0.8420   -8.8930 C.2    23  ALA23       0.2592
     15  O         85.7020    1.5980   -8.7640 O.2    23  ALA23      -0.2718
     16  CB        82.3890    1.4110   -8.2730 C.3    23  ALA23       0.0304
     17  N         84.7900   -0.4530   -8.5940 N.am   24  PHE24      -0.1976
     18  CA        86.0160   -1.0620   -8.0860 C.3    24  PHE24       0.1639
     19  C         87.2180   -0.6090   -8.9100 C.2    24  PHE24       0.2290
     20  O         88.2030   -0.1110   -8.3650 O.2    24  PHE24      -0.2864
     21  CB        85.9050   -2.5910   -8.1370 C.3    24  PHE24       0.0560
     22  CG        85.0100   -3.0750   -7.0200 C.ar   24  PHE24      -0.0200
     23  CD1       83.6190   -3.0240   -7.1650 C.ar   24  PHE24      -0.0042
     24  CD2       85.5730   -3.5750   -5.8390 C.ar   24  PHE24      -0.0042
     25  CE1       82.7900   -3.4720   -6.1300 C.ar   24  PHE24      -0.0003
     26  CE2       84.7440   -4.0240   -4.8040 C.ar   24  PHE24      -0.0003
     27  CZ        83.3530   -3.9720   -4.9500 C.ar   24  PHE24      -0.0000
     28  N         88.4470    2.5820   -7.7160 N.3    27  PHE27      -0.1241
     29  CA        89.0740    2.4770   -6.4030 C.3    27  PHE27       0.1605
     30  C         90.4030    1.7320   -6.4980 C.2    27  PHE27       0.2264
     31  O         91.2580    1.8550   -5.6210 O.2    27  PHE27      -0.2867
     32  CB        88.1440    1.7390   -5.4360 C.3    27  PHE27       0.0534
     33  CG        86.9860    2.6330   -5.0570 C.ar   27  PHE27      -0.0203
     34  CD1       87.1730    3.6610   -4.1260 C.ar   27  PHE27      -0.0042
     35  CD2       85.7250    2.4310   -5.6330 C.ar   27  PHE27      -0.0042
     36  CE1       86.1010    4.4880   -3.7710 C.ar   27  PHE27      -0.0003
     37  CE2       84.6530    3.2590   -5.2780 C.ar   27  PHE27      -0.0003
     38  CZ        84.8410    4.2870   -4.3470 C.ar   27  PHE27      -0.0000
     39  N         90.8700   -2.3150   -1.6220 N.3    36  ILE36      -0.1245
     40  CA        90.6630   -0.8810   -1.4350 C.3    36  ILE36       0.1561
     41  C         91.1270   -0.4490   -0.0480 C.2    36  ILE36       0.2260
     42  O         91.1590   -1.2530    0.8840 O.2    36  ILE36      -0.2867
     43  CB        89.1800   -0.5410   -1.6110 C.3    36  ILE36       0.0252
     44  CG1       88.6710   -1.1490   -2.9240 C.3    36  ILE36       0.0019
     45  CG2       89.0100    0.9810   -1.6460 C.3    36  ILE36       0.0019
     46  CD1       87.1610   -0.9290   -3.0460 C.3    36  ILE36       0.0001
     47  N         90.5710    5.5390   -1.5260 N.3    41  LEU41      -0.1245
     48  CA        89.2090    5.9190   -1.1690 C.3    41  LEU41       0.1561
     49  C         88.9770    7.4000   -1.4660 C.2    41  LEU41       0.2260
     50  O         88.1720    7.7510   -2.3290 O.2    41  LEU41      -0.2867
     51  CB        88.9650    5.6290    0.3240 C.3    41  LEU41       0.0270
     52  CG        87.4690    5.3860    0.6070 C.3    41  LEU41       0.0019
     53  CD1       86.6320    6.5330    0.0300 C.3    41  LEU41       0.0001
     54  CD2       87.0070    4.0440   -0.0040 C.3    41  LEU41       0.0001
     55  N         88.2610    8.5890   -5.0830 N.3    44  VAL44      -0.1231
     56  CA        86.9720    8.5940   -5.7670 C.3    44  VAL44       0.1692
     57  C         86.0780    9.6990   -5.2150 C.2    44  VAL44       0.2591
     58  O         85.4270   10.4200   -5.9710 O.2    44  VAL44      -0.2718
     59  CB        86.2830    7.2400   -5.5920 C.3    44  VAL44       0.0266
     60  CG1       84.9770    7.2200   -6.3890 C.3    44  VAL44       0.0020
     61  CG2       87.2070    6.1310   -6.1020 C.3    44  VAL44       0.0020
     62  N         86.0510    9.8270   -3.8920 N.am   45  MET45      -0.1979
     63  CA        85.2330   10.8490   -3.2500 C.3    45  MET45       0.1605
     64  C         85.6430   12.2400   -3.7250 C.2    45  MET45       0.2287
     65  O         84.9420   13.2220   -3.4820 O.2    45  MET45      -0.2864
     66  CB        85.3850   10.7610   -1.7300 C.3    45  MET45       0.0413
     67  CG        84.7050    9.4880   -1.2220 C.3    45  MET45       0.0598
     68  SD        82.9080    9.6840   -1.3220 S.3    45  MET45      -0.1393
     69  CE        82.4870    7.9240   -1.3050 C.3    45  MET45       0.0692
     70  N         83.5180   13.5600   -6.6560 N.3    48  LEU48      -0.1245
     71  CA        82.2170   14.0200   -6.1850 C.3    48  LEU48       0.1561
     72  C         82.3100   15.4620   -5.6900 C.2    48  LEU48       0.2260
     73  O         81.9190   16.3950   -6.3910 O.2    48  LEU48      -0.2867
     74  CB        81.7210   13.1150   -5.0490 C.3    48  LEU48       0.0270
     75  CG        81.1860   11.7990   -5.6260 C.3    48  LEU48       0.0019
     76  CD1       82.2400   11.1670   -6.5400 C.3    48  LEU48       0.0001
     77  CD2       80.8630   10.8390   -4.4780 C.3    48  LEU48       0.0001
     78  N         84.1380    4.0840    7.9070 N.3    60  MET60      -0.1230
     79  CA        83.1900    3.4990    6.9660 C.3    60  MET60       0.1702
     80  C         83.6300    2.0950    6.5610 C.2    60  MET60       0.2592
     81  O         82.8000    1.2400    6.2510 O.2    60  MET60      -0.2718
     82  CB        83.0800    4.3810    5.7200 C.3    60  MET60       0.0401
     83  CG        82.3190    5.6640    6.0630 C.3    60  MET60       0.0596
     84  SD        80.5490    5.3050    6.1740 S.3    60  MET60      -0.1393
     85  CE        80.1420    5.6270    4.4400 C.3    60  MET60       0.0692
     86  N         84.9410    1.8630    6.5660 N.am   61  ILE61      -0.1980
     87  CA        85.4860    0.5570    6.1970 C.3    61  ILE61       0.1595
     88  C         85.6040   -0.3370    7.4320 C.2    61  ILE61       0.2287
     89  O         85.6940   -1.5590    7.3180 O.2    61  ILE61      -0.2864
     90  CB        86.8670    0.7340    5.5450 C.3    61  ILE61       0.0276
     91  CG1       86.7040    1.3610    4.1530 C.3    61  ILE61       0.0022
     92  CG2       87.5580   -0.6270    5.3980 C.3    61  ILE61       0.0022
     93  CD1       86.1830    2.7990    4.2690 C.3    61  ILE61       0.0001
     94  N         88.0090   -3.7010    1.4300 N.3    72  VAL72      -0.1245
     95  CA        86.6210   -3.8550    0.9910 C.3    72  VAL72       0.1561
     96  C         86.5580   -4.6370   -0.3170 C.2    72  VAL72       0.2260
     97  O         86.5170   -4.0530   -1.4000 O.2    72  VAL72      -0.2867
     98  CB        85.9820   -2.4770    0.7950 C.3    72  VAL72       0.0252
     99  CG1       84.5470   -2.6410    0.2850 C.3    72  VAL72       0.0019
    100  CG2       85.9660   -1.7320    2.1310 C.3    72  VAL72       0.0019
    101  N         81.4360   -6.2410    0.5130 N.3    77  PHE77      -0.1241
    102  CA        80.9240   -5.0600   -0.1740 C.3    77  PHE77       0.1605
    103  C         79.4120   -5.1570   -0.3510 C.2    77  PHE77       0.2264
    104  O         78.6660   -4.2980    0.1200 O.2    77  PHE77      -0.2867
    105  CB        81.5930   -4.9210   -1.5440 C.3    77  PHE77       0.0534
    106  CG        81.0020   -3.7370   -2.2760 C.ar   77  PHE77      -0.0203
    107  CD1       81.2780   -2.4360   -1.8380 C.ar   77  PHE77      -0.0042
    108  CD2       80.1800   -3.9380   -3.3930 C.ar   77  PHE77      -0.0042
    109  CE1       80.7340   -1.3380   -2.5150 C.ar   77  PHE77      -0.0003
    110  CE2       79.6350   -2.8400   -4.0700 C.ar   77  PHE77      -0.0003
    111  CZ        79.9120   -1.5400   -3.6310 C.ar   77  PHE77      -0.0000
    112  N         77.3020   -4.3650    2.5830 N.3    80  MET80      -0.1230
    113  CA        77.1150   -2.9450    2.8590 C.3    80  MET80       0.1702
    114  C         75.8260   -2.4390    2.2150 C.2    80  MET80       0.2592
    115  O         74.9540   -1.8970    2.8930 O.2    80  MET80      -0.2718
    116  CB        78.3060   -2.1470    2.3180 C.3    80  MET80       0.0401
    117  CG        78.2670   -0.7100    2.8540 C.3    80  MET80       0.0596
    118  SD        79.1970    0.3720    1.7400 S.3    80  MET80      -0.1393
    119  CE        80.8550   -0.0870    2.3000 C.3    80  MET80       0.0692
    120  N         75.7160   -2.6180    0.9020 N.am   81  MET81      -0.1979
    121  CA        74.5300   -2.1720    0.1770 C.3    81  MET81       0.1605
    122  C         73.2770   -2.8460    0.7290 C.2    81  MET81       0.2287
    123  O         72.3470   -2.1750    1.1770 O.2    81  MET81      -0.2864
    124  CB        74.6710   -2.4990   -1.3120 C.3    81  MET81       0.0413
    125  CG        75.7120   -1.5750   -1.9480 C.3    81  MET81       0.0598
    126  SD        77.3500   -1.9620   -1.2810 S.3    81  MET81      -0.1393
    127  CE        78.0210   -0.2810   -1.3050 C.3    81  MET81       0.0692
@<TRIPOS>BOND
     1    12    13    1
     2     1     2    1
     3     3     4    2
     4     3     2    1
     5    13    14    1
     6    13    16    1
     7     2     5    1
     8    19    20    2
     9    19    18    1
    10    14    15    2
    11    14    17   am
    12    17    18    1
    13    21    18    1
    14    21    22    1
    15     5     6    1
    16     8     6   ar
    17     8    10   ar
    18    28    29    1
    19     6     7   ar
    20    10    11   ar
    21    23    22   ar
    22    23    25   ar
    23    22    24   ar
    24    70    71    1
    25     7     9   ar
    26    76    75    1
    27    30    29    1
    28    30    31    2
    29    11     9   ar
    30    29    32    1
    31    73    72    2
    32    60    59    1
    33    71    72    1
    34    71    74    1
    35    25    27   ar
    36    61    59    1
    37    58    57    2
    38    24    26   ar
    39    56    59    1
    40    56    57    1
    41    56    55    1
    42    35    37   ar
    43    35    33   ar
    44    75    74    1
    45    75    77    1
    46    32    33    1
    47    37    38   ar
    48    57    62   am
    49    33    34   ar
    50    27    26   ar
    51    38    36   ar
    52    34    36   ar
    53   110   111   ar
    54   110   108   ar
    55    62    63    1
    56    64    65    2
    57    64    63    1
    58   111   109   ar
    59   108   106   ar
    60    63    66    1
    61    46    44    1
    62    44    43    1
    63   109   107   ar
    64    50    49    2
    65   106   107   ar
    66   106   105    1
    67   125   124    1
    68   125   126    1
    69    66    67    1
    70    45    43    1
    71    39    40    1
    72    43    40    1
    73   105   102    1
    74    47    48    1
    75    49    48    1
    76    40    41    1
    77    97    96    2
    78    68    69    1
    79    68    67    1
    80   124   121    1
    81   127   126    1
    82    48    51    1
    83   103   102    1
    84   103   104    2
    85    96    95    1
    86   102   101    1
    87    41    42    2
    88    54    52    1
    89    53    52    1
    90   121   122    1
    91   121   120    1
    92    99    98    1
    93    51    52    1
    94   122   123    2
    95    98    95    1
    96    98   100    1
    97   120   114   am
    98    95    94    1
    99   118   119    1
   100   118   117    1
   101   114   113    1
   102   114   115    2
   103   116   117    1
   104   116   113    1
   105   112   113    1
   106    91    93    1
   107    91    90    1
   108    85    84    1
   109    92    90    1
   110    90    87    1
   111    82    83    1
   112    82    79    1
   113    83    84    1
   114    87    86    1
   115    87    88    1
   116    81    80    2
   117    80    86   am
   118    80    79    1
   119    79    78    1
   120    89    88    2
