@<TRIPOS>MOLECULE
tmp/2kgcA00.pdb
 83 74 0 0 0
SMALL
GASTEIGER

@<TRIPOS>ATOM
      1  N          7.8890   -8.3990    2.4320 N.3    42  SER42      -0.1202
      2  CA         6.5170   -8.8840    2.5640 C.3    42  SER42       0.2020
      3  C          5.9360   -8.5720    3.9450 C.2    42  SER42       0.2618
      4  O          4.8010   -8.1100    4.0640 O.2    42  SER42      -0.2717
      5  CB         6.4920  -10.3890    2.3200 C.3    42  SER42       0.2103
      6  OG         7.5260  -11.0310    3.1250 O.3    42  SER42      -0.2182
      7  N          6.7280   -8.8240    4.9800 N.am   43  LEU43      -0.1979
      8  CA         6.2970   -8.5970    6.3560 C.3    43  LEU43       0.1596
      9  C          6.0390   -7.1090    6.5910 C.2    43  LEU43       0.2287
     10  O          4.9840   -6.7310    7.0950 O.2    43  LEU43      -0.2864
     11  CB         7.3560   -9.1340    7.3310 C.3    43  LEU43       0.0297
     12  CG         6.8750   -9.4410    8.7590 C.3    43  LEU43       0.0022
     13  CD1        6.6150   -8.1660    9.5470 C.3    43  LEU43       0.0001
     14  CD2        5.6250  -10.3130    8.7270 C.3    43  LEU43       0.0001
     15  N          5.4360   -4.9870    4.3950 N.3    45  LEU45      -0.1231
     16  CA         4.3290   -4.6600    3.5130 C.3    45  LEU45       0.1693
     17  C          2.9850   -4.9180    4.1940 C.2    45  LEU45       0.2591
     18  O          2.0890   -4.0710    4.1550 O.2    45  LEU45      -0.2718
     19  CB         4.4420   -5.4810    2.2250 C.3    45  LEU45       0.0284
     20  CG         3.2400   -5.4180    1.2820 C.3    45  LEU45       0.0019
     21  CD1        3.0080   -3.9990    0.7850 C.3    45  LEU45       0.0001
     22  CD2        3.4470   -6.3700    0.1140 C.3    45  LEU45       0.0001
     23  N          2.8410   -6.0730    4.8320 N.am   46  MET46      -0.1979
     24  CA         1.5860   -6.4000    5.4960 C.3    46  MET46       0.1605
     25  C          1.3980   -5.5440    6.7460 C.2    46  MET46       0.2287
     26  O          0.2710   -5.3020    7.1740 O.2    46  MET46      -0.2864
     27  CB         1.4930   -7.8940    5.8300 C.3    46  MET46       0.0413
     28  CG         2.3880   -8.3520    6.9680 C.3    46  MET46       0.0598
     29  SD         2.1630  -10.0980    7.3650 S.3    46  MET46      -0.1393
     30  CE         0.3980  -10.1520    7.6820 C.3    46  MET46       0.0692
     31  N         -0.1860   -2.5460    5.3990 N.3    49  ALA49      -0.1245
     32  CA        -1.6000   -2.8240    5.1550 C.3    49  ALA49       0.1562
     33  C         -2.4460   -2.5060    6.3840 C.2    49  ALA49       0.2260
     34  O         -3.5200   -1.9140    6.2730 O.2    49  ALA49      -0.2867
     35  CB        -1.7980   -4.2750    4.7420 C.3    49  ALA49       0.0290
     36  N         -8.4910   -5.5080    4.4490 N.3    60  ILE60      -0.1245
     37  CA        -8.0380   -6.2070    3.2520 C.3    60  ILE60       0.1561
     38  C         -8.2090   -7.7220    3.4050 C.2    60  ILE60       0.2260
     39  O         -7.6720   -8.3260    4.3360 O.2    60  ILE60      -0.2867
     40  CB        -6.5670   -5.8620    2.9420 C.3    60  ILE60       0.0252
     41  CG1       -6.3920   -4.3380    2.8850 C.3    60  ILE60       0.0019
     42  CG2       -6.1360   -6.4990    1.6280 C.3    60  ILE60       0.0019
     43  CD1       -4.9540   -3.8850    2.7580 C.3    60  ILE60       0.0001
     44  N         -8.1250  -11.8880    2.8550 N.3    62  ASP62      -0.1239
     45  CA        -6.9990  -12.8330    2.8790 C.3    62  ASP62       0.1674
     46  C         -6.4550  -13.1480    1.4820 C.2    62  ASP62       0.2266
     47  O         -5.2750  -12.9240    1.2030 O.2    62  ASP62      -0.2867
     48  CB        -7.4400  -14.1400    3.5610 C.3    62  ASP62       0.1410
     49  CG        -6.3310  -15.1770    3.6850 C.2    62  ASP62       0.3668
     50  OD1       -5.8590  -15.6770    2.6390 O.co2  62  ASP62      -0.2456
     51  OD2       -5.8960  -15.4690    4.8200 O.co2  62  ASP62      -0.2456
     52  N         -5.1600  -10.2500   -0.9100 N.3    65  ALA65      -0.1231
     53  CA        -3.9550   -9.5990   -0.4030 C.3    65  ALA65       0.1694
     54  C         -2.7080  -10.1780   -1.0470 C.2    65  ALA65       0.2592
     55  O         -1.7850   -9.4540   -1.4040 O.2    65  ALA65      -0.2718
     56  CB        -3.8790   -9.7310    1.1110 C.3    65  ALA65       0.0304
     57  N         -2.7040  -11.4870   -1.2180 N.am   66  GLY66      -0.1957
     58  CA        -1.5570  -12.1570   -1.7940 C.3    66  GLY66       0.1869
     59  C         -1.6160  -12.2240   -3.3040 C.2    66  GLY66       0.2309
     60  O         -0.7300  -12.7910   -3.9410 O.2    66  GLY66      -0.2863
     61  N         -1.9460   -9.4290   -5.1880 N.3    68  VAL68      -0.1245
     62  CA        -1.4500   -8.1750   -5.7360 C.3    68  VAL68       0.1561
     63  C          0.0520   -8.2600   -5.9790 C.2    68  VAL68       0.2260
     64  O          0.6980   -9.2300   -5.5810 O.2    68  VAL68      -0.2867
     65  CB        -1.7690   -6.9580   -4.8380 C.3    68  VAL68       0.0252
     66  CG1       -3.2700   -6.7140   -4.7760 C.3    68  VAL68       0.0019
     67  CG2       -1.2060   -7.1530   -3.4420 C.3    68  VAL68       0.0019
     68  N         -2.9300   -2.2110   -5.6660 N.3    74  LEU74      -0.1245
     69  CA        -3.3730   -2.1650   -4.2760 C.3    74  LEU74       0.1561
     70  C         -4.2120   -0.9070   -4.0570 C.2    74  LEU74       0.2260
     71  O         -5.3110   -0.9630   -3.4970 O.2    74  LEU74      -0.2867
     72  CB        -2.1580   -2.1730   -3.3350 C.3    74  LEU74       0.0270
     73  CG        -2.3210   -2.9710   -2.0350 C.3    74  LEU74       0.0019
     74  CD1       -1.0830   -2.8130   -1.1630 C.3    74  LEU74       0.0001
     75  CD2       -3.5620   -2.5340   -1.2730 C.3    74  LEU74       0.0001
     76  N         -7.4860   -1.1990   -5.9150 N.3    77  LEU77      -0.1245
     77  CA        -8.3690   -2.1400   -5.2370 C.3    77  LEU77       0.1561
     78  C         -9.1160   -1.4690   -4.0920 C.2    77  LEU77       0.2260
     79  O        -10.3420   -1.5370   -4.0140 O.2    77  LEU77      -0.2867
     80  CB        -7.5580   -3.3270   -4.7020 C.3    77  LEU77       0.0270
     81  CG        -8.3600   -4.3730   -3.9230 C.3    77  LEU77       0.0019
     82  CD1       -9.3490   -5.0790   -4.8370 C.3    77  LEU77       0.0001
     83  CD2       -7.4250   -5.3790   -3.2670 C.3    77  LEU77       0.0001
@<TRIPOS>BOND
     1    63    62    1
     2    63    64    2
     3    76    77    1
     4    62    61    1
     5    62    65    1
     6    68    69    1
     7    77    80    1
     8    77    78    1
     9    65    66    1
    10    65    67    1
    11    82    81    1
    12    80    81    1
    13    69    70    1
    14    69    72    1
    15    78    79    2
    16    70    71    2
    17    60    59    2
    18    81    83    1
    19    72    73    1
    20    59    58    1
    21    73    75    1
    22    73    74    1
    23    58    57    1
    24    55    54    2
    25    57    54   am
    26    54    53    1
    27    52    53    1
    28    53    56    1
    29    22    20    1
    30    21    20    1
    31    47    46    2
    32    20    19    1
    33    46    45    1
    34    42    40    1
    35    19    16    1
    36     5     2    1
    37     5     6    1
    38     1     2    1
    39     2     3    1
    40    50    49   ar
    41    43    41    1
    42    44    45    1
    43    45    48    1
    44    41    40    1
    45    40    37    1
    46    37    38    1
    47    37    36    1
    48    38    39    2
    49    16    17    1
    50    16    15    1
    51    48    49    1
    52    49    51   ar
    53     3     4    2
    54     3     7   am
    55    18    17    2
    56    17    23   am
    57    35    32    1
    58    23    24    1
    59     7     8    1
    60    32    31    1
    61    32    33    1
    62    24    27    1
    63    24    25    1
    64    27    28    1
    65    34    33    2
    66     8     9    1
    67     8    11    1
    68     9    10    2
    69    25    26    2
    70    28    29    1
    71    11    12    1
    72    29    30    1
    73    14    12    1
    74    12    13    1
