@<TRIPOS>MOLECULE
tmp/2kgiA00.pdb
 179 178 0 0 0
SMALL
GASTEIGER

@<TRIPOS>ATOM
      1  N         -7.2960   -9.5450   -1.8100 N.3     1  SER1       -0.1217
      2  CA        -6.2420   -9.0900   -2.7480 C.3     1  SER1        0.1889
      3  C         -4.8860   -8.9410   -2.0170 C.2     1  SER1        0.2288
      4  O         -4.7940   -8.3100   -0.9370 O.2     1  SER1       -0.2866
      5  CB        -6.6560   -7.7580   -3.3970 C.3     1  SER1        0.2089
      6  OG        -7.9290   -7.8670   -4.0490 O.3     1  SER1       -0.2183
      7  N         -8.1660   -8.1050    3.4470 N.3    12  CYS12      -0.1221
      8  CA        -9.4950   -8.2650    2.8280 C.3    12  CYS12       0.1808
      9  C        -10.6840   -7.7730    3.7070 C.2    12  CYS12       0.2601
     10  O        -11.8330   -8.1250    3.4520 O.2    12  CYS12      -0.2717
     11  CB        -9.7110   -9.7040    2.3510 C.3    12  CYS12       0.0970
     12  SG        -8.5370  -10.2380    1.0820 S.3    12  CYS12      -0.0800
     13  N        -10.4010   -6.9330    4.6970 N.am   13  LYS13      -0.1965
     14  CA       -11.4500   -6.3380    5.5230 C.3    13  LYS13       0.1728
     15  C        -12.1550   -5.2240    4.7690 C.2    13  LYS13       0.2616
     16  O        -11.8360   -4.9800    3.6080 O.2    13  LYS13      -0.2715
     17  CB       -10.9040   -5.8270    6.8570 C.3    13  LYS13       0.0311
     18  CG       -10.5320   -6.9170    7.8490 C.3    13  LYS13       0.0038
     19  CD       -10.0340   -6.3080    9.1640 C.3    13  LYS13       0.0206
     20  CE        -8.6440   -5.7050    9.0410 C.3    13  LYS13       0.1093
     21  NZ        -7.6040   -6.7520    8.8870 N.3    13  LYS13      -0.1314
     22  N        -13.0820   -4.5310    5.4500 N.am   14  ASP14      -0.1957
     23  CA       -13.9280   -3.4830    4.8360 C.3    14  ASP14       0.1840
     24  C        -13.1360   -2.4950    4.0300 C.2    14  ASP14       0.2622
     25  O        -13.2490   -2.4540    2.8440 O.2    14  ASP14      -0.2715
     26  CB       -14.7530   -2.7160    5.8800 C.3    14  ASP14       0.1450
     27  CG       -15.8180   -3.5370    6.5650 C.2    14  ASP14       0.3671
     28  OD1      -15.5150   -4.1520    7.6030 O.co2  14  ASP14      -0.2456
     29  OD2      -16.9800   -3.5250    6.1050 O.co2  14  ASP14      -0.2456
     30  N        -12.3520   -1.6930    4.6660 N.am   15  LYS15      -0.1963
     31  CA       -11.5620   -0.7320    3.9480 C.3    15  LYS15       0.1728
     32  C        -10.1230   -0.7730    4.3920 C.2    15  LYS15       0.2616
     33  O         -9.8190   -0.5690    5.5650 O.2    15  LYS15      -0.2715
     34  CB       -12.1910    0.6640    4.0540 C.3    15  LYS15       0.0311
     35  CG       -13.4990    0.7840    3.2550 C.3    15  LYS15       0.0038
     36  CD       -14.2360    2.0860    3.4840 C.3    15  LYS15       0.0206
     37  CE       -14.8170    2.1440    4.8820 C.3    15  LYS15       0.1093
     38  NZ       -15.8810    1.1220    5.0990 N.3    15  LYS15      -0.1314
     39  N         -9.2550   -1.0900    3.4600 N.am   16  VAL16      -0.1963
     40  CA        -7.8320   -1.2010    3.7240 C.3    16  VAL16       0.1727
     41  C         -7.0530   -0.2830    2.7780 C.2    16  VAL16       0.2616
     42  O         -7.4500   -0.0940    1.6220 O.2    16  VAL16      -0.2715
     43  CB        -7.3210   -2.6820    3.6260 C.3    16  VAL16       0.0290
     44  CG1       -8.0160   -3.5600    4.6670 C.3    16  VAL16       0.0023
     45  CG2       -7.5320   -3.2570    2.2270 C.3    16  VAL16       0.0023
     46  N         -5.9590    0.2650    3.2640 N.am   17  ASP17      -0.1957
     47  CA        -5.1970    1.2850    2.5320 C.3    17  ASP17       0.1840
     48  C         -3.9830    0.7110    1.8050 C.2    17  ASP17       0.2622
     49  O         -3.3020   -0.2330    2.2850 O.2    17  ASP17      -0.2715
     50  CB        -4.7590    2.4130    3.4800 C.3    17  ASP17       0.1450
     51  CG        -5.9310    3.0720    4.1870 C.2    17  ASP17       0.3671
     52  OD1       -6.5630    3.9780    3.6010 O.co2  17  ASP17      -0.2456
     53  OD2       -6.2320    2.6770    5.3360 O.co2  17  ASP17      -0.2456
     54  N         -3.7110    1.2930    0.6510 N.am   18  TRP18      -0.1960
     55  CA        -2.6350    0.8670   -0.2480 C.3    18  TRP18       0.1771
     56  C         -1.7450    2.0660   -0.5910 C.2    18  TRP18       0.2620
     57  O         -2.1840    3.2360   -0.4570 O.2    18  TRP18      -0.2715
     58  CB        -3.2300    0.3550   -1.5690 C.3    18  TRP18       0.0590
     59  CG        -4.2580   -0.7300   -1.4640 C.ar   18  TRP18       0.0006
     60  CD1       -5.4380   -0.6570   -0.8340 C.ar   18  TRP18       0.0946
     61  CD2       -4.2330   -2.0070   -2.0920 C.ar   18  TRP18       0.0152
     62  NE1       -6.1040   -1.8380   -0.9360 N.ar   18  TRP18      -0.2442
     63  CE2       -5.3920   -2.6750   -1.7280 C.ar   18  TRP18       0.0810
     64  CE3       -3.3330   -2.6390   -2.8980 C.ar   18  TRP18       0.0012
     65  CZ2       -5.6720   -3.9620   -2.1500 C.ar   18  TRP18       0.0191
     66  CZ3       -3.5940   -3.9040   -3.3420 C.ar   18  TRP18       0.0001
     67  CH2       -4.7570   -4.5620   -2.9650 C.ar   18  TRP18       0.0015
     68  N         -0.5290    1.7930   -1.0640 N.am   19  VAL19      -0.1963
     69  CA         0.4060    2.8370   -1.4810 C.3    19  VAL19       0.1727
     70  C          1.0370    2.3620   -2.7670 C.2    19  VAL19       0.2616
     71  O          1.2690    1.1560   -2.9200 O.2    19  VAL19      -0.2715
     72  CB         1.6110    2.9920   -0.5510 C.3    19  VAL19       0.0290
     73  CG1        2.2700    4.3430   -0.6860 C.3    19  VAL19       0.0023
     74  CG2        1.3780    2.5720    0.8520 C.3    19  VAL19       0.0023
     75  N          1.2860    3.2500   -3.6690 N.am   20  GLN20      -0.1963
     76  CA         2.0080    2.8940   -4.8470 C.3    20  GLN20       0.1733
     77  C          3.4070    3.4180   -4.7450 C.2    20  GLN20       0.2616
     78  O          3.6170    4.5230   -4.2510 O.2    20  GLN20      -0.2715
     79  CB         1.3310    3.4390   -6.0730 C.3    20  GLN20       0.0408
     80  CG         1.8480    2.8140   -7.3500 C.3    20  GLN20       0.0908
     81  CD         0.9650    3.0400   -8.5390 C.2    20  GLN20       0.2608
     82  OE1        0.2580    4.0360   -8.6300 O.2    20  GLN20      -0.2717
     83  NE2        1.0070    2.1150   -9.4650 N.am   20  GLN20      -0.0878
     84  N          4.3620    2.6290   -5.1690 N.am   21  CYS21      -0.1954
     85  CA         5.7540    3.0360   -5.1390 C.3    21  CYS21       0.1843
     86  C          6.0620    3.9220   -6.3390 C.2    21  CYS21       0.2625
     87  O          5.7210    3.5870   -7.4770 O.2    21  CYS21      -0.2714
     88  CB         6.6170    1.8160   -5.2240 C.3    21  CYS21       0.0997
     89  SG         8.3870    2.0450   -4.8970 S.3    21  CYS21      -0.0797
     90  N          6.7450    5.0000   -6.0870 N.am   22  ASP22      -0.1971
     91  CA         7.1150    5.9510   -7.1180 C.3    22  ASP22       0.1709
     92  C          8.6080    5.8580   -7.3720 C.2    22  ASP22       0.2293
     93  O          9.1980    6.7290   -7.9880 O.2    22  ASP22      -0.2864
     94  CB         6.7570    7.3770   -6.6840 C.3    22  ASP22       0.1436
     95  CG         5.2900    7.5490   -6.3710 C.2    22  ASP22       0.3671
     96  OD1        4.4510    7.6140   -7.3280 O.co2  22  ASP22      -0.2456
     97  OD2        4.9540    7.6260   -5.1920 O.co2  22  ASP22      -0.2456
     98  N          6.3830    0.5710   -9.2690 N.3    26  ASP26      -0.1239
     99  CA         4.9330    0.9490   -9.4580 C.3    26  ASP26       0.1674
    100  C          3.9180   -0.0930   -8.9960 C.2    26  ASP26       0.2266
    101  O          2.7520   -0.0740   -9.4060 O.2    26  ASP26      -0.2867
    102  CB         4.6490    1.4040  -10.8970 C.3    26  ASP26       0.1410
    103  CG         5.2420    2.7600  -11.2020 C.2    26  ASP26       0.3668
    104  OD1        6.4520    2.8560  -11.4510 O.co2  26  ASP26      -0.2456
    105  OD2        4.5020    3.7490  -11.1960 O.co2  26  ASP26      -0.2456
    106  N          1.7330   -2.0170   -5.9370 N.3    28  TRP28      -0.1241
    107  CA         0.9470   -1.5610   -4.8240 C.3    28  TRP28       0.1605
    108  C          1.2680   -2.3260   -3.5920 C.2    28  TRP28       0.2264
    109  O          1.5180   -3.5210   -3.6510 O.2    28  TRP28      -0.2867
    110  CB        -0.5530   -1.6510   -5.0880 C.3    28  TRP28       0.0550
    111  CG        -1.0770   -0.7040   -6.1090 C.ar   28  TRP28       0.0003
    112  CD1       -1.2880   -0.9410   -7.4310 C.ar   28  TRP28       0.0946
    113  CD2       -1.4860    0.6420   -5.8740 C.ar   28  TRP28       0.0152
    114  NE1       -1.7960    0.1800   -8.0340 N.ar   28  TRP28      -0.2442
    115  CE2       -1.9140    1.1630   -7.1000 C.ar   28  TRP28       0.0810
    116  CE3       -1.5150    1.4640   -4.7440 C.ar   28  TRP28       0.0012
    117  CZ2       -2.3800    2.4540   -7.2270 C.ar   28  TRP28       0.0191
    118  CZ3       -1.9830    2.7510   -4.8750 C.ar   28  TRP28       0.0001
    119  CH2       -2.4060    3.2350   -6.1100 C.ar   28  TRP28       0.0015
    120  N         -0.1680   -0.1820    3.3120 N.3    31  GLN31      -0.1245
    121  CA         0.6850    0.7010    4.1010 C.3    31  GLN31       0.1566
    122  C          1.3710   -0.0350    5.2680 C.2    31  GLN31       0.2260
    123  O          2.5350    0.1720    5.5360 O.2    31  GLN31      -0.2867
    124  CB        -0.0910    1.9370    4.5700 C.3    31  GLN31       0.0367
    125  CG        -0.8760    2.5600    3.4350 C.3    31  GLN31       0.0905
    126  CD        -0.8450    4.0720    3.4150 C.2    31  GLN31       0.2608
    127  OE1       -0.7230    4.7250    4.4400 O.2    31  GLN31      -0.2717
    128  NE2       -0.9670    4.6330    2.2270 N.am   31  GLN31      -0.0878
    129  N          3.3470    8.4800    3.1680 N.3    41  ALA41      -0.1231
    130  CA         2.9220    8.1450    1.8020 C.3    41  ALA41       0.1694
    131  C          1.9970    9.1970    1.1920 C.2    41  ALA41       0.2592
    132  O          1.9200    9.3330   -0.0220 O.2    41  ALA41      -0.2718
    133  CB         2.2350    6.8240    1.7900 C.3    41  ALA41       0.0304
    134  N          1.2660    9.9130    2.0230 N.am   42  GLU42      -0.1966
    135  CA         0.3690   10.9350    1.5200 C.3    42  GLU42       0.1733
    136  C          1.1240   12.2630    1.3700 C.2    42  GLU42       0.2616
    137  O          0.6440   13.2020    0.7400 O.2    42  GLU42      -0.2715
    138  CB        -0.8270   11.0960    2.4590 C.3    42  GLU42       0.0429
    139  CG        -1.7070    9.8570    2.5930 C.3    42  GLU42       0.1163
    140  CD        -2.8270   10.0620    3.5940 C.2    42  GLU42       0.3649
    141  OE1       -2.5760    9.9810    4.8160 O.co2  42  GLU42      -0.2457
    142  OE2       -3.9590   10.3340    3.1800 O.co2  42  GLU42      -0.2457
    143  N          2.2910   12.3390    1.9980 N.am   43  ASN43      -0.1958
    144  CA         3.1360   13.5320    1.9040 C.3    43  ASN43       0.1819
    145  C          4.2270   13.4640    0.8550 C.2    43  ASN43       0.2621
    146  O          4.3500   14.3610    0.0320 O.2    43  ASN43      -0.2715
    147  CB         3.7370   13.9220    3.2380 C.3    43  ASN43       0.1195
    148  CG         2.8720   14.8660    4.0410 C.2    43  ASN43       0.2630
    149  OD1        2.9850   16.0880    3.9050 O.2    43  ASN43      -0.2716
    150  ND2        2.0290   14.3290    4.8780 N.am   43  ASN43      -0.0877
    151  N          5.0010   12.4230    0.8670 N.am   44  GLU44      -0.1963
    152  CA         6.1130   12.3310   -0.0370 C.3    44  GLU44       0.1733
    153  C          5.9550   11.1600   -0.9280 C.2    44  GLU44       0.2616
    154  O          5.1560   10.2610   -0.6540 O.2    44  GLU44      -0.2715
    155  CB         7.4570   12.2360    0.6890 C.3    44  GLU44       0.0429
    156  CG         7.8570   13.4690    1.4710 C.3    44  GLU44       0.1163
    157  CD         8.0490   14.7000    0.6080 C.2    44  GLU44       0.3649
    158  OE1        8.9950   14.7230   -0.2220 O.co2  44  GLU44      -0.2457
    159  OE2        7.2840   15.6760    0.7720 O.co2  44  GLU44      -0.2457
    160  N          6.7090   11.1850   -1.9950 N.am   45  ASP45      -0.1957
    161  CA         6.7470   10.1140   -2.9680 C.3    45  ASP45       0.1840
    162  C          7.2020    8.8790   -2.2410 C.2    45  ASP45       0.2622
    163  O          8.1830    8.9390   -1.4680 O.2    45  ASP45      -0.2715
    164  CB         7.7760   10.4420   -4.0560 C.3    45  ASP45       0.1450
    165  CG         7.6270   11.8400   -4.6060 C.2    45  ASP45       0.3671
    166  OD1        8.2200   12.7820   -4.0020 O.co2  45  ASP45      -0.2456
    167  OD2        6.9390   12.0310   -5.6130 O.co2  45  ASP45      -0.2456
    168  N          6.5600    7.7720   -2.4520 N.am   46  TYR46      -0.1974
    169  CA         6.9110    6.6390   -1.6870 C.3    46  TYR46       0.1639
    170  C          7.6950    5.6180   -2.4530 C.2    46  TYR46       0.2290
    171  O          7.2650    5.0670   -3.4470 O.2    46  TYR46      -0.2864
    172  CB         5.7910    6.0630   -0.8240 C.3    46  TYR46       0.0560
    173  CG         6.3000    4.8960   -0.0090 C.ar   46  TYR46      -0.0198
    174  CD1        7.3690    5.0300    0.8850 C.ar   46  TYR46      -0.0009
    175  CD2        5.7800    3.6770   -0.1960 C.ar   46  TYR46      -0.0009
    176  CE1        7.8680    3.9310    1.5660 C.ar   46  TYR46       0.0417
    177  CE2        6.2610    2.5650    0.4550 C.ar   46  TYR46       0.0417
    178  CZ         7.3080    2.6970    1.3410 C.ar   46  TYR46       0.1957
    179  OH         7.7970    1.5840    1.9850 O.3    46  TYR46      -0.2866
@<TRIPOS>BOND
     1   104   103   ar
     2   103   105   ar
     3   103   102    1
     4   102    99    1
     5    83    81   am
     6    99    98    1
     7    99   100    1
     8   101   100    2
     9    82    81    2
    10    81    80    1
    11   114   112   ar
    12   114   115   ar
    13    93    92    2
    14    87    86    2
    15   112   111   ar
    16    92    91    1
    17    80    79    1
    18    96    95   ar
    19   117   115   ar
    20   117   119   ar
    21    91    94    1
    22    91    90    1
    23   115   113   ar
    24    94    95    1
    25    95    97   ar
    26    86    90   am
    27    86    85    1
    28   119   118   ar
    29   111   113   ar
    30   111   110    1
    31    79    76    1
    32   106   107    1
    33   113   116   ar
    34   167   165   ar
    35    88    85    1
    36    88    89    1
    37    84    85    1
    38    84    77   am
    39   110   107    1
    40   118   116   ar
    41    76    77    1
    42    76    75    1
    43   107   108    1
    44    77    78    2
    45   165   164    1
    46   165   166   ar
    47   164   161    1
    48     6     5    1
    49    75    70   am
    50   109   108    2
    51   171   170    2
    52     5     2    1
    53    66    67   ar
    54    66    64   ar
    55   161   162    1
    56   161   160    1
    57    67    65   ar
    58    71    70    2
    59    64    61   ar
    60    70    69    1
    61     2     3    1
    62     2     1    1
    63   170   169    1
    64   168   162   am
    65   168   169    1
    66   162   163    2
    67    65    63   ar
    68    61    63   ar
    69    61    59   ar
    70     3     4    2
    71   160   153   am
    72    63    62   ar
    73   169   172    1
    74    58    59    1
    75    58    55    1
    76    69    68    1
    77    69    72    1
    78    59    60   ar
    79    68    56   am
    80    62    60   ar
    81   153   154    2
    82   153   152    1
    83   172   173    1
    84    73    72    1
    85    56    57    2
    86    56    55    1
    87    72    74    1
    88    55    54    1
    89   158   157   ar
    90   175   173   ar
    91   175   177   ar
    92   152   155    1
    93   152   151    1
    94   132   131    2
    95   173   174   ar
    96   146   145    2
    97   177   178   ar
    98   157   159   ar
    99   157   156    1
   100    54    48   am
   101   155   156    1
   102   137   136    2
   103   145   151   am
   104   145   144    1
   105   174   176   ar
   106    12    11    1
   107   131   130    1
   108   131   134   am
   109   178   176   ar
   110   178   179    1
   111   136   135    1
   112   136   143   am
   113   135   134    1
   114   135   138    1
   115    42    41    2
   116   133   130    1
   117   130   129    1
   118    48    49    2
   119    48    47    1
   120   144   143    1
   121   144   147    1
   122    45    43    1
   123   128   126   am
   124    11     8    1
   125   138   139    1
   126    47    46    1
   127    47    50    1
   128   139   140    1
   129    41    46   am
   130    41    40    1
   131     8     7    1
   132     8     9    1
   133    25    24    2
   134   142   140   ar
   135   147   148    1
   136    35    36    1
   137    35    34    1
   138   120   121    1
   139   126   125    1
   140   126   127    2
   141   125   124    1
   142    10     9    2
   143    39    40    1
   144    39    32   am
   145    50    51    1
   146    36    37    1
   147   140   141   ar
   148    52    51   ar
   149    16    15    2
   150    43    40    1
   151    43    44    1
   152     9    13   am
   153   149   148    2
   154    31    34    1
   155    31    32    1
   156    31    30    1
   157    24    30   am
   158    24    23    1
   159   148   150   am
   160   121   124    1
   161   121   122    1
   162    51    53   ar
   163    32    33    2
   164    13    14    1
   165    15    22   am
   166    15    14    1
   167    23    22    1
   168    23    26    1
   169    37    38    1
   170   122   123    2
   171    14    17    1
   172    26    27    1
   173    29    27   ar
   174    27    28   ar
   175    17    18    1
   176    18    19    1
   177    21    20    1
   178    20    19    1
