@<TRIPOS>MOLECULE
tmp/2ki5B00.pdb
 162 153 0 0 0
SMALL
GASTEIGER

@<TRIPOS>ATOM
      1  N         16.8760   97.7140   38.5930 N.3    13  HIS13      -0.1241
      2  CA        15.8300   97.8670   39.5980 C.3    13  HIS13       0.1621
      3  C         14.8800   99.0140   39.1810 C.2    13  HIS13       0.2264
      4  O         15.2870   99.9350   38.3970 O.2    13  HIS13      -0.2867
      5  CB        16.4750   98.1570   40.9710 C.3    13  HIS13       0.0745
      6  CG        17.4850   99.2740   40.9550 C.ar   13  HIS13       0.0817
      7  ND1       17.2040  100.5430   41.4200 N.ar   13  HIS13      -0.2268
      8  CD2       18.7670   99.3150   40.5290 C.ar   13  HIS13       0.1154
      9  CE1       18.2670  101.3140   41.2710 C.ar   13  HIS13       0.1986
     10  NE2       19.2280  100.5920   40.7310 N.ar   13  HIS13      -0.2212
     11  N         12.6860   88.4650   46.3640 N.3    35  GLU35      -0.1245
     12  CA        13.8590   89.2430   46.6980 C.3    35  GLU35       0.1567
     13  C         14.0380   89.0220   48.2070 C.2    35  GLU35       0.2260
     14  O         13.1450   89.3350   48.9750 O.2    35  GLU35      -0.2867
     15  CB        13.5140   90.6850   46.4300 C.3    35  GLU35       0.0388
     16  CG        14.5060   91.6620   46.8790 C.3    35  GLU35       0.1160
     17  CD        14.0960   93.0650   46.5150 C.2    35  GLU35       0.3649
     18  OE1       13.2600   93.6500   47.2320 O.co2  35  GLU35      -0.2457
     19  OE2       14.6080   93.5970   45.5100 O.co2  35  GLU35      -0.2457
     20  N         18.9220   91.0750   53.5920 N.3    40  TRP40      -0.1241
     21  CA        19.6070   92.3570   53.3830 C.3    40  TRP40       0.1605
     22  C         19.3770   93.3970   54.4820 C.2    40  TRP40       0.2264
     23  O         20.1940   94.2730   54.7060 O.2    40  TRP40      -0.2867
     24  CB        19.1660   92.9830   52.0460 C.3    40  TRP40       0.0550
     25  CG        19.3350   92.1080   50.8400 C.ar   40  TRP40       0.0003
     26  CD1       20.1390   91.0100   50.7180 C.ar   40  TRP40       0.0946
     27  CD2       18.7140   92.2940   49.5650 C.ar   40  TRP40       0.0152
     28  NE1       20.0640   90.5010   49.4370 N.ar   40  TRP40      -0.2442
     29  CE2       19.1920   91.2720   48.7090 C.ar   40  TRP40       0.0810
     30  CE3       17.7870   93.2240   49.0600 C.ar   40  TRP40       0.0012
     31  CZ2       18.7770   91.1570   47.3720 C.ar   40  TRP40       0.0191
     32  CZ3       17.3760   93.1070   47.7310 C.ar   40  TRP40       0.0001
     33  CH2       17.8710   92.0810   46.9100 C.ar   40  TRP40       0.0015
     34  N         21.0010   97.7530   51.9180 N.3    49  ILE49      -0.1245
     35  CA        20.6660   98.6650   50.8240 C.3    49  ILE49       0.1561
     36  C         20.9460  100.1120   51.2500 C.2    49  ILE49       0.2260
     37  O         21.4840  100.8930   50.4980 O.2    49  ILE49      -0.2867
     38  CB        19.1940   98.4830   50.3740 C.3    49  ILE49       0.0252
     39  CG1       18.9980   97.0890   49.8010 C.3    49  ILE49       0.0019
     40  CG2       18.8120   99.5290   49.3670 C.3    49  ILE49       0.0019
     41  CD1       17.5850   96.8000   49.3820 C.3    49  ILE49       0.0001
     42  N         24.8500  100.7210   51.1870 N.3    52  ILE52      -0.1231
     43  CA        25.2990  100.8950   49.8080 C.3    52  ILE52       0.1692
     44  C         25.0500  102.3100   49.2730 C.2    52  ILE52       0.2592
     45  O         25.9850  102.9910   48.8160 O.2    52  ILE52      -0.2718
     46  CB        24.6250   99.8400   48.9060 C.3    52  ILE52       0.0266
     47  CG1       25.2970   98.4820   49.1230 C.3    52  ILE52       0.0019
     48  CG2       24.5990  100.2920   47.4410 C.3    52  ILE52       0.0020
     49  CD1       24.6140   97.3250   48.4150 C.3    52  ILE52       0.0001
     50  N         23.8070  102.7750   49.3660 N.am   53  TYR53      -0.1976
     51  CA        23.4490  104.0960   48.8640 C.3    53  TYR53       0.1639
     52  C         24.0790  105.2680   49.6280 C.2    53  TYR53       0.2290
     53  O         24.4850  106.2530   49.0300 O.2    53  TYR53      -0.2864
     54  CB        21.9170  104.2290   48.7470 C.3    53  TYR53       0.0560
     55  CG        21.3290  103.5170   47.5240 C.ar   53  TYR53      -0.0198
     56  CD1       20.9770  102.1640   47.5660 C.ar   53  TYR53      -0.0009
     57  CD2       21.1750  104.1900   46.3180 C.ar   53  TYR53      -0.0009
     58  CE1       20.4920  101.5090   46.4370 C.ar   53  TYR53       0.0417
     59  CE2       20.6950  103.5380   45.1840 C.ar   53  TYR53       0.0417
     60  CZ        20.3570  102.2090   45.2490 C.ar   53  TYR53       0.1957
     61  OH        19.8870  101.5960   44.1110 O.3    53  TYR53      -0.2866
     62  N         28.3890   93.8650   48.7740 N.3    77  GLN77      -0.1245
     63  CA        28.0040   93.0430   47.6350 C.3    77  GLN77       0.1566
     64  C         27.9800   91.5850   48.0210 C.2    77  GLN77       0.2260
     65  O         27.1700   90.7980   47.4990 O.2    77  GLN77      -0.2867
     66  CB        28.9460   93.2440   46.4440 C.3    77  GLN77       0.0367
     67  CG        28.9320   94.6410   45.8740 C.3    77  GLN77       0.0905
     68  CD        27.5540   95.0970   45.4360 C.2    77  GLN77       0.2608
     69  OE1       26.7510   94.3220   44.9010 O.2    77  GLN77      -0.2717
     70  NE2       27.2690   96.3720   45.6670 N.am   77  GLN77      -0.0878
     71  N         24.6580   91.0090   49.8070 N.3    80  MET80      -0.1245
     72  CA        23.6110   91.0460   48.7840 C.3    80  MET80       0.1570
     73  C         23.4360   89.7460   48.0230 C.2    80  MET80       0.2261
     74  O         22.3220   89.3020   47.8310 O.2    80  MET80      -0.2867
     75  CB        23.8480   92.1750   47.7690 C.3    80  MET80       0.0387
     76  CG        23.7570   93.6190   48.3040 C.3    80  MET80       0.0595
     77  SD        22.1810   94.1210   49.0880 S.3    80  MET80      -0.1393
     78  CE        21.0800   94.3590   47.7090 C.3    80  MET80       0.0692
     79  N         21.2650   84.2560   47.0180 N.3    84  TYR84      -0.1241
     80  CA        21.2430   83.7230   45.6440 C.3    84  TYR84       0.1605
     81  C         22.1790   82.5420   45.5260 C.2    84  TYR84       0.2264
     82  O         21.8320   81.5190   44.9190 O.2    84  TYR84      -0.2867
     83  CB        21.6990   84.7580   44.6050 C.3    84  TYR84       0.0534
     84  CG        20.9080   86.0370   44.4970 C.ar   84  TYR84      -0.0201
     85  CD1       19.5700   86.1040   44.8650 C.ar   84  TYR84      -0.0009
     86  CD2       21.5210   87.2040   44.0510 C.ar   84  TYR84      -0.0009
     87  CE1       18.8540   87.3130   44.8040 C.ar   84  TYR84       0.0417
     88  CE2       20.8250   88.4140   43.9810 C.ar   84  TYR84       0.0417
     89  CZ        19.4900   88.4570   44.3640 C.ar   84  TYR84       0.1957
     90  OH        18.8110   89.6480   44.3030 O.3    84  TYR84      -0.2866
     91  N         15.5740   87.5440   40.4290 N.3   110  ARG110     -0.1245
     92  CA        17.0170   87.7310   40.1530 C.3   110  ARG110      0.1563
     93  C         17.8340   86.4210   40.0950 C.2   110  ARG110      0.2260
     94  O         17.4110   85.3750   40.6050 O.2   110  ARG110     -0.2867
     95  CB        17.6770   88.7870   41.0890 C.3   110  ARG110      0.0307
     96  CG        17.1090   90.1900   40.9310 C.3   110  ARG110      0.0489
     97  CD        17.8990   91.3750   41.5460 C.3   110  ARG110      0.2205
     98  NE        17.9810   92.4580   40.5500 N.pl3 110  ARG110     -0.0865
     99  CZ        17.6150   93.7290   40.7300 C.cat 110  ARG110      0.5346
    100  NH1       17.1350   94.1510   41.8800 N.pl3 110  ARG110      0.1354
    101  NH2       17.7050   94.5860   39.7420 N.pl3 110  ARG110      0.1354
    102  N         23.4330   88.6920   39.1020 N.3   114  ALA114     -0.1231
    103  CA        23.0300   90.0690   39.3790 C.3   114  ALA114      0.1694
    104  C         23.9620   90.6340   40.4360 C.2   114  ALA114      0.2591
    105  O         24.4120   91.7780   40.3360 O.2   114  ALA114     -0.2718
    106  CB        21.6020   90.1220   39.8920 C.3   114  ALA114      0.0304
    107  N         24.2540   89.8020   41.4320 N.am  115  ALA115     -0.1980
    108  CA        25.1170   90.1560   42.5690 C.3   115  ALA115      0.1597
    109  C         26.6120   89.8920   42.3590 C.2   115  ALA115      0.2287
    110  O         27.4580   90.6020   42.9130 O.2   115  ALA115     -0.2864
    111  CB        24.6290   89.4160   43.8050 C.3   115  ALA115      0.0319
    112  N         25.7050   94.1730   39.4090 N.3   119  TYR119     -0.1241
    113  CA        25.8110   95.2810   40.3550 C.3   119  TYR119      0.1605
    114  C         27.2770   95.6380   40.6480 C.2   119  TYR119      0.2264
    115  O         27.6240   96.8130   40.7220 O.2   119  TYR119     -0.2867
    116  CB        24.9310   95.0700   41.6000 C.3   119  TYR119      0.0534
    117  CG        23.4930   95.5130   41.3190 C.ar  119  TYR119     -0.0201
    118  CD1       23.1470   96.8650   41.3560 C.ar  119  TYR119     -0.0009
    119  CD2       22.5120   94.6040   40.9050 C.ar  119  TYR119     -0.0009
    120  CE1       21.8770   97.3000   40.9760 C.ar  119  TYR119      0.0417
    121  CE2       21.2400   95.0350   40.5290 C.ar  119  TYR119      0.0417
    122  CZ        20.9380   96.3820   40.5600 C.ar  119  TYR119      0.1957
    123  OH        19.7250   96.8550   40.0980 O.3   119  TYR119     -0.2866
    124  N         28.9890   99.4020   40.0070 N.3   123  ARG123     -0.1245
    125  CA        29.6160  100.1600   41.0820 C.3   123  ARG123      0.1563
    126  C         31.0320  100.4670   40.6480 C.2   123  ARG123      0.2260
    127  O         31.5680  101.4870   41.0080 O.2   123  ARG123     -0.2867
    128  CB        29.5740   99.3990   42.4050 C.3   123  ARG123      0.0307
    129  CG        28.1930   99.4080   43.0400 C.3   123  ARG123      0.0489
    130  CD        27.6990  100.8260   43.1870 C.3   123  ARG123      0.2205
    131  NE        26.3210  100.8600   43.6410 N.pl3 123  ARG123     -0.0865
    132  CZ        25.6620  101.9650   43.9670 C.cat 123  ARG123      0.5346
    133  NH1       26.2510  103.1480   43.8760 N.pl3 123  ARG123      0.1354
    134  NH2       24.3980  101.8890   44.3790 N.pl3 123  ARG123      0.1354
    135  N         13.5780  101.5870   47.2950 N.3   169  ARG169     -0.1245
    136  CA        13.7370  100.5740   48.3410 C.3   169  ARG169      0.1563
    137  C         14.0400  101.3600   49.6320 C.2   169  ARG169      0.2260
    138  O         14.3040  102.5970   49.5850 O.2   169  ARG169     -0.2867
    139  CB        14.9020   99.6300   47.9810 C.3   169  ARG169      0.0307
    140  CG        14.6930   98.1550   48.3100 C.3   169  ARG169      0.0489
    141  CD        13.5820   97.5060   47.4830 C.3   169  ARG169      0.2205
    142  NE        13.8840   97.4890   46.0550 N.pl3 169  ARG169     -0.0865
    143  CZ        13.0720   97.0180   45.1040 C.cat 169  ARG169      0.5346
    144  NH1       11.8840   96.5000   45.4060 N.pl3 169  ARG169      0.1354
    145  NH2       13.4280   97.1220   43.8320 N.pl3 169  ARG169      0.1354
    146  N         17.3740  103.2990   49.9280 N.3   172  GLU172     -0.1245
    147  CA        17.7410  103.6330   48.5680 C.3   172  GLU172      0.1567
    148  C         17.6750  105.1500   48.3990 C.2   172  GLU172      0.2260
    149  O         16.9390  105.8320   49.1170 O.2   172  GLU172     -0.2867
    150  CB        16.7550  102.9440   47.6230 C.3   172  GLU172      0.0388
    151  CG        16.9930  103.1890   46.1520 C.3   172  GLU172      0.1160
    152  CD        16.1420  102.3010   45.2590 C.2   172  GLU172      0.3649
    153  OE1       15.9690  101.1020   45.5810 O.co2 172  GLU172     -0.2457
    154  OE2       15.6560  102.8010   44.2230 O.co2 172  GLU172     -0.2457
    155  N         23.7660  106.0070   38.8290 N.3   178  MET178     -0.1245
    156  CA        23.8370  104.5690   39.0610 C.3   178  MET178      0.1570
    157  C         22.7780  103.8740   38.2110 C.2   178  MET178      0.2261
    158  O         22.9350  102.7010   37.8480 O.2   178  MET178     -0.2867
    159  CB        23.6250  104.2420   40.5480 C.3   178  MET178      0.0387
    160  CG        23.4810  102.7560   40.8900 C.3   178  MET178      0.0595
    161  SD        24.9320  101.7630   40.5610 S.3   178  MET178     -0.1393
    162  CE        24.2760  100.1400   40.6150 C.3   178  MET178      0.0692
@<TRIPOS>BOND
     1   158   157    2
     2   157   156    1
     3     4     3    2
     4     1     2    1
     5   155   156    1
     6   156   159    1
     7   102   103    1
     8     3     2    1
     9   103   106    1
    10   103   104    1
    11   112   113    1
    12     2     5    1
    13   101    99    1
    14   124   125    1
    15    93    92    1
    16    93    94    2
    17   123   122    1
    18    92    91    1
    19    92    95    1
    20   105   104    2
    21   113   114    1
    22   113   116    1
    23   104   107   am
    24   121   122   ar
    25   121   119   ar
    26     8    10   ar
    27     8     6   ar
    28   159   160    1
    29    98    99    2
    30    98    97    1
    31   122   120   ar
    32   161   162    1
    33   161   160    1
    34   126   127    2
    35   126   125    1
    36   114   115    2
    37    99   100    1
    38    10     9   ar
    39   119   117   ar
    40    96    95    1
    41    96    97    1
    42     6     5    1
    43     6     7   ar
    44   120   118   ar
    45   125   128    1
    46     9     7   ar
    47   117   118   ar
    48   117   116    1
    49   107   108    1
    50   109   108    1
    51   109   110    2
    52   128   129    1
    53   108   111    1
    54   129   130    1
    55   130   131    1
    56   131   132    2
    57   145   143    1
    58   133   132    1
    59   132   134    1
    60    88    86   ar
    61    88    89   ar
    62    86    84   ar
    63    61    60    1
    64   154   152   ar
    65    90    89    1
    66    89    87   ar
    67    84    83    1
    68    84    85   ar
    69    83    80    1
    70    87    85   ar
    71    69    68    2
    72    82    81    2
    73   143   144    1
    74   143   142    2
    75    59    60   ar
    76    59    57   ar
    77    60    58   ar
    78   152   153   ar
    79   152   151    1
    80    68    70   am
    81    68    67    1
    82    19    17   ar
    83    81    80    1
    84    80    79    1
    85    67    66    1
    86   142   141    1
    87   151   150    1
    88    57    55   ar
    89    11    12    1
    90    15    12    1
    91    15    16    1
    92    58    56   ar
    93    66    63    1
    94    17    16    1
    95    17    18   ar
    96    12    13    1
    97    33    31   ar
    98    33    32   ar
    99   135   136    1
   100    31    29   ar
   101    48    46    1
   102   141   140    1
   103    65    64    2
   104    55    56   ar
   105    55    54    1
   106   150   147    1
   107    63    64    1
   108    63    62    1
   109    78    77    1
   110    32    30   ar
   111    75    76    1
   112    75    72    1
   113    74    73    2
   114   139   140    1
   115   139   136    1
   116    73    72    1
   117    13    14    2
   118    76    77    1
   119   136   137    1
   120   148   147    1
   121   148   149    2
   122    49    47    1
   123   147   146    1
   124    29    28   ar
   125    29    27   ar
   126    54    51    1
   127    72    71    1
   128    45    44    2
   129    51    50    1
   130    51    52    1
   131    46    47    1
   132    46    43    1
   133    53    52    2
   134    30    27   ar
   135    44    50   am
   136    44    43    1
   137    40    38    1
   138    41    39    1
   139    28    26   ar
   140    27    25   ar
   141   138   137    2
   142    39    38    1
   143    43    42    1
   144    38    35    1
   145    37    36    2
   146    26    25   ar
   147    35    36    1
   148    35    34    1
   149    25    24    1
   150    24    21    1
   151    21    20    1
   152    21    22    1
   153    22    23    2
