@<TRIPOS>MOLECULE
tmp/2ki5A00.pdb
 133 127 0 0 0
SMALL
GASTEIGER

@<TRIPOS>ATOM
      1  N         49.8680   78.7580   58.1020 N.3    13  HIS13      -0.1297
      2  CA        51.0950   79.3330   57.5850 C.3    13  HIS13       0.1306
      3  C         52.1890   79.2180   58.6440 C.3    13  HIS13       0.2013
      4  O         51.8850   79.1100   59.8890 O.3    13  HIS13      -0.2188
      5  CB        50.8810   80.7980   57.2350 C.3    13  HIS13       0.0691
      6  CG        50.2080   81.5980   58.3070 C.ar   13  HIS13       0.0814
      7  ND1       49.0210   81.2190   58.8870 N.ar   13  HIS13      -0.2268
      8  CD2       50.5270   82.7910   58.8560 C.ar   13  HIS13       0.1154
      9  CE1       48.6340   82.1460   59.7460 C.ar   13  HIS13       0.1986
     10  NE2       49.5300   83.1100   59.7450 N.ar   13  HIS13      -0.2212
     11  N         48.8260   89.3450   45.4940 N.3    37  TRP37      -0.1241
     12  CA        48.5850   89.9250   46.8190 C.3    37  TRP37       0.1605
     13  C         49.2650   91.2740   47.0580 C.2    37  TRP37       0.2264
     14  O         48.6700   92.1960   47.6290 O.2    37  TRP37      -0.2867
     15  CB        49.0250   88.9380   47.9030 C.3    37  TRP37       0.0550
     16  CG        48.3040   87.6560   47.8330 C.ar   37  TRP37       0.0003
     17  CD1       47.1400   87.4050   47.1600 C.ar   37  TRP37       0.0946
     18  CD2       48.6870   86.4250   48.4410 C.ar   37  TRP37       0.0152
     19  NE1       46.7830   86.0920   47.3100 N.ar   37  TRP37      -0.2442
     20  CE2       47.7150   85.4650   48.0900 C.ar   37  TRP37       0.0810
     21  CE3       49.7600   86.0370   49.2540 C.ar   37  TRP37       0.0012
     22  CZ2       47.7770   84.1430   48.5270 C.ar   37  TRP37       0.0191
     23  CZ3       49.8210   84.7130   49.6910 C.ar   37  TRP37       0.0001
     24  CH2       48.8370   83.7850   49.3230 C.ar   37  TRP37       0.0015
     25  N         48.5100   91.4110   52.3300 N.3    46  ILE46      -0.1245
     26  CA        48.8980   90.7660   53.5730 C.3    46  ILE46       0.1561
     27  C         49.1710   91.8020   54.6460 C.2    46  ILE46       0.2260
     28  O         48.7770   91.6190   55.8070 O.2    46  ILE46      -0.2867
     29  CB        50.1000   89.8420   53.4020 C.3    46  ILE46       0.0252
     30  CG1       49.6530   88.5440   52.7420 C.3    46  ILE46       0.0019
     31  CG2       50.7430   89.5520   54.7650 C.3    46  ILE46       0.0019
     32  CD1       50.7950   87.6410   52.3780 C.3    46  ILE46       0.0001
     33  N         45.8790   93.1330   55.8470 N.3    49  ILE49      -0.1231
     34  CA        45.2480   92.1690   56.7420 C.3    49  ILE49       0.1692
     35  C         45.7830   92.2420   58.1850 C.2    49  ILE49       0.2592
     36  O         44.9910   92.3250   59.1670 O.2    49  ILE49      -0.2718
     37  CB        45.4120   90.7350   56.1860 C.3    49  ILE49       0.0266
     38  CG1       44.5630   90.5820   54.9150 C.3    49  ILE49       0.0019
     39  CG2       45.0470   89.6950   57.2280 C.3    49  ILE49       0.0020
     40  CD1       44.7540   89.2820   54.2030 C.3    49  ILE49       0.0001
     41  N         47.1090   92.2530   58.3270 N.am   50  TYR50      -0.1976
     42  CA        47.7350   92.3080   59.6490 C.3    50  TYR50       0.1639
     43  C         47.6760   93.6610   60.3670 C.2    50  TYR50       0.2290
     44  O         47.6280   93.7110   61.5920 O.2    50  TYR50      -0.2864
     45  CB        49.1580   91.7430   59.5990 C.3    50  TYR50       0.0560
     46  CG        49.1980   90.2270   59.5240 C.ar   50  TYR50      -0.0198
     47  CD1       49.1790   89.5610   58.2920 C.ar   50  TYR50      -0.0009
     48  CD2       49.2850   89.4530   60.6860 C.ar   50  TYR50      -0.0009
     49  CE1       49.2510   88.1660   58.2290 C.ar   50  TYR50       0.0417
     50  CE2       49.3620   88.0600   60.6260 C.ar   50  TYR50       0.0417
     51  CZ        49.3480   87.4300   59.3970 C.ar   50  TYR50       0.1957
     52  OH        49.4680   86.0580   59.3320 O.3    50  TYR50      -0.2866
     53  N         39.8810   89.2820   51.9640 N.3    74  GLN74      -0.1245
     54  CA        39.8660   87.8510   51.6650 C.3    74  GLN74       0.1566
     55  C         39.5590   87.5920   50.1720 C.2    74  GLN74       0.2260
     56  O         40.0130   86.6050   49.5950 O.2    74  GLN74      -0.2867
     57  CB        38.8410   87.1240   52.5380 C.3    74  GLN74       0.0367
     58  CG        38.8910   87.4810   54.0040 C.3    74  GLN74       0.0905
     59  CD        40.2060   87.1410   54.6600 C.2    74  GLN74       0.2608
     60  OE1       40.6510   86.0120   54.6370 O.2    74  GLN74      -0.2717
     61  NE2       40.8200   88.1270   55.2570 N.am   74  GLN74      -0.0878
     62  N         42.7490   87.8020   48.3620 N.3    77  MET77      -0.1245
     63  CA        43.5910   86.6610   48.6910 C.3    77  MET77       0.1570
     64  C         43.2440   85.3610   47.9960 C.2    77  MET77       0.2261
     65  O         44.1130   84.5560   47.6740 O.2    77  MET77      -0.2867
     66  CB        43.5760   86.4240   50.1970 C.3    77  MET77       0.0387
     67  CG        44.1750   87.5670   51.0090 C.3    77  MET77       0.0595
     68  SD        45.9930   87.7820   50.8220 S.3    77  MET77      -0.1393
     69  CE        46.4990   86.2150   51.3310 C.3    77  MET77       0.0692
     70  N         43.3150   81.4640   43.4310 N.3    81  TYR81      -0.1241
     71  CA        42.9000   80.0740   43.6010 C.3    81  TYR81       0.1605
     72  C         41.5770   79.8190   42.9000 C.2    81  TYR81       0.2264
     73  O         41.3480   78.7240   42.4080 O.2    81  TYR81      -0.2867
     74  CB        42.7080   79.7010   45.0820 C.3    81  TYR81       0.0534
     75  CG        43.8240   80.0730   46.0210 C.ar   81  TYR81      -0.0201
     76  CD1       45.1630   79.9690   45.6400 C.ar   81  TYR81      -0.0009
     77  CD2       43.5330   80.5490   47.2980 C.ar   81  TYR81      -0.0009
     78  CE1       46.1850   80.3340   46.5080 C.ar   81  TYR81       0.0417
     79  CE2       44.5380   80.9170   48.1700 C.ar   81  TYR81       0.0417
     80  CZ        45.8600   80.8090   47.7680 C.ar   81  TYR81       0.1957
     81  OH        46.8490   81.2100   48.6270 O.3    81  TYR81      -0.2866
     82  N         48.3220   75.6200   48.3370 N.3   107  ARG107     -0.1245
     83  CA        46.9800   75.9090   48.8710 C.3   107  ARG107      0.1563
     84  C         45.7670   75.6430   47.9460 C.2   107  ARG107      0.2260
     85  O         45.8490   75.7360   46.7080 O.2   107  ARG107     -0.2867
     86  CB        46.8950   77.3180   49.4860 C.3   107  ARG107      0.0307
     87  CG        48.1400   77.7400   50.2510 C.3   107  ARG107      0.0489
     88  CD        47.8270   78.8250   51.1830 C.3   107  ARG107      0.2205
     89  NE        47.0790   78.2240   52.2570 N.pl3 107  ARG107     -0.0865
     90  CZ        47.3790   78.3200   53.5470 C.cat 107  ARG107      0.5346
     91  NH1       48.4240   79.0130   53.9750 N.pl3 107  ARG107      0.1354
     92  NH2       46.6190   77.6820   54.4090 N.pl3 107  ARG107      0.1354
     93  N         41.1180   77.3920   51.5830 N.3   111  ALA111     -0.1231
     94  CA        41.9610   78.1220   52.5240 C.3   111  ALA111      0.1694
     95  C         41.4800   79.5610   52.5840 C.2   111  ALA111      0.2591
     96  O         41.3330   80.1590   53.6710 O.2   111  ALA111     -0.2718
     97  CB        43.3990   78.0690   52.0840 C.3   111  ALA111      0.0304
     98  N         41.1690   80.1120   51.4170 N.am  112  ALA112     -0.1980
     99  CA        40.7040   81.4810   51.3420 C.3   112  ALA112      0.1597
    100  C         39.1930   81.6140   51.4080 C.2   112  ALA112      0.2287
    101  O         38.7080   82.6630   51.7170 O.2   112  ALA112     -0.2864
    102  CB        41.2190   82.1310   50.0970 C.3   112  ALA112      0.0319
    103  N         40.6890   80.6440   56.4850 N.3   116  TYR116     -0.1241
    104  CA        41.0950   81.9540   57.0020 C.3   116  TYR116      0.1605
    105  C         39.9450   82.8590   57.4100 C.2   116  TYR116      0.2264
    106  O         40.0880   83.6830   58.3530 O.2   116  TYR116     -0.2867
    107  CB        42.0540   82.6630   56.0430 C.3   116  TYR116      0.0534
    108  CG        43.4550   82.1550   56.2520 C.ar  116  TYR116     -0.0201
    109  CD1       44.2620   82.6810   57.2660 C.ar  116  TYR116     -0.0009
    110  CD2       43.9440   81.0880   55.5130 C.ar  116  TYR116     -0.0009
    111  CE1       45.5240   82.1410   57.5370 C.ar  116  TYR116      0.0417
    112  CE2       45.1980   80.5480   55.7790 C.ar  116  TYR116      0.0417
    113  CZ        45.9740   81.0820   56.7940 C.ar  116  TYR116      0.1957
    114  OH        47.1920   80.5220   57.0630 O.3   116  TYR116     -0.2866
    115  N         39.5490   84.4480   61.0020 N.3   120  ARG120     -0.1245
    116  CA        39.3720   85.8670   61.2790 C.3   120  ARG120      0.1563
    117  C         38.0810   86.1050   62.0920 C.2   120  ARG120      0.2260
    118  O         37.9670   87.0920   62.8480 O.2   120  ARG120     -0.2867
    119  CB        39.4110   86.6980   60.0010 C.3   120  ARG120      0.0307
    120  CG        40.8110   86.7760   59.3780 C.3   120  ARG120      0.0489
    121  CD        41.7960   87.4920   60.3080 C.3   120  ARG120      0.2205
    122  NE        43.1920   87.4060   59.8500 N.pl3 120  ARG120     -0.0865
    123  CZ        44.2380   87.9840   60.4670 C.cat 120  ARG120      0.5346
    124  NH1       44.0730   88.7090   61.5710 N.pl3 120  ARG120      0.1354
    125  NH2       45.4720   87.8000   60.0110 N.pl3 120  ARG120      0.1354
    126  N         46.4970   84.7400   66.2530 N.3   175  MET175     -0.1245
    127  CA        46.1240   84.2700   64.9220 C.3   175  MET175      0.1570
    128  C         46.6800   82.8560   64.7100 C.2   175  MET175      0.2261
    129  O         45.9790   81.9920   64.2110 O.2   175  MET175     -0.2867
    130  CB        46.6310   85.2190   63.8330 C.3   175  MET175      0.0387
    131  CG        46.2070   84.8360   62.4260 C.3   175  MET175      0.0595
    132  SD        44.4080   84.6470   62.2580 S.3   175  MET175     -0.1393
    133  CE        44.2510   84.1780   60.4720 C.3   175  MET175      0.0692
@<TRIPOS>BOND
     1    73    72    2
     2    72    71    1
     3    70    71    1
     4    71    74    1
     5    74    75    1
     6    11    12    1
     7    76    75   ar
     8    76    78   ar
     9    75    77   ar
    10    78    80   ar
    11    85    84    2
    12    12    13    1
    13    12    15    1
    14    13    14    2
    15    17    19   ar
    16    17    16   ar
    17    77    79   ar
    18    19    20   ar
    19    65    64    2
    20    80    79   ar
    21    80    81    1
    22    16    15    1
    23    16    18   ar
    24    84    83    1
    25    64    63    1
    26    20    18   ar
    27    20    22   ar
    28    82    83    1
    29    62    63    1
    30    18    21   ar
    31    22    24   ar
    32    63    66    1
    33    83    86    1
    34    21    23   ar
    35    24    23   ar
    36    86    87    1
    37    56    55    2
    38   102    99    1
    39    55    54    1
    40    66    67    1
    41    87    88    1
    42    68    67    1
    43    68    69    1
    44    88    89    1
    45    99   100    1
    46    99    98    1
    47   100   101    2
    48    98    95   am
    49    93    94    1
    50    54    53    1
    51    54    57    1
    52    97    94    1
    53    89    90    2
    54    25    26    1
    55    32    30    1
    56    94    95    1
    57    57    58    1
    58    95    96    2
    59    30    29    1
    60    29    26    1
    61    29    31    1
    62    90    91    1
    63    90    92    1
    64    26    27    1
    65    58    59    1
    66    40    38    1
    67    60    59    2
    68    27    28    2
    69    59    61   am
    70    38    37    1
    71   110   112   ar
    72   110   108   ar
    73   112   113   ar
    74    33    34    1
    75   107   108    1
    76   107   104    1
    77    37    34    1
    78    37    39    1
    79   108   109   ar
    80   103   104    1
    81    34    35    1
    82   113   114    1
    83   113   111   ar
    84   104   105    1
    85     5     2    1
    86     5     6    1
    87   109   111   ar
    88   105   106    2
    89     2     1    1
    90     2     3    1
    91    35    41   am
    92    35    36    2
    93    49    47   ar
    94    49    51   ar
    95    47    46   ar
    96     6     8   ar
    97     6     7   ar
    98    41    42    1
    99     3     4    1
   100     8    10   ar
   101     7     9   ar
   102    52    51    1
   103   120   119    1
   104   120   121    1
   105    51    50   ar
   106    46    45    1
   107    46    48   ar
   108    45    42    1
   109    42    43    1
   110    10     9   ar
   111   122   121    1
   112   122   123    2
   113   119   116    1
   114   125   123    1
   115    43    44    2
   116   123   124    1
   117   133   132    1
   118    50    48   ar
   119   115   116    1
   120   116   117    1
   121   117   118    2
   122   132   131    1
   123   131   130    1
   124   130   127    1
   125   129   128    2
   126   128   127    1
   127   127   126    1
