@<TRIPOS>MOLECULE
tmp/2kidA00.pdb
 165 159 0 0 0
SMALL
GASTEIGER

@<TRIPOS>ATOM
      1  N         -2.2680   11.0970    2.7430 N.3    33  PRO33      -0.2102
      2  CA        -2.4740    9.7800    3.3950 C.3    33  PRO33       0.1504
      3  C         -3.6320    9.0030    2.7640 C.2    33  PRO33       0.2575
      4  O         -4.3870    9.5360    1.9810 O.2    33  PRO33      -0.2718
      5  CB        -2.8280   10.1710    4.8300 C.3    33  PRO33       0.0282
      6  CG        -3.4260   11.5490    4.7500 C.3    33  PRO33       0.0208
      7  CD        -3.1180   12.1170    3.3580 C.3    33  PRO33       0.0893
      8  N         -3.7780    7.7500    3.0980 N.am   34  ALA34      -0.1980
      9  CA        -4.8920    6.9530    2.5100 C.3    34  ALA34       0.1597
     10  C         -6.2290    7.4030    3.1060 C.2    34  ALA34       0.2287
     11  O         -7.1440    6.6180    3.2630 O.2    34  ALA34      -0.2864
     12  CB        -4.6640    5.4630    2.7790 C.3    34  ALA34       0.0319
     13  N         -9.9440    8.9300    3.2130 N.3    36  PRO36      -0.2116
     14  CA       -11.0400    8.8990    2.2130 C.3    36  PRO36       0.1372
     15  C        -10.8030    9.8510    1.0370 C.2    36  PRO36       0.2244
     16  O        -10.8650    9.4580   -0.1120 O.2    36  PRO36      -0.2868
     17  CB       -12.2530    9.3260    3.0320 C.3    36  PRO36       0.0268
     18  CG       -11.9870    8.8060    4.4120 C.3    36  PRO36       0.0207
     19  CD       -10.4610    8.7080    4.5720 C.3    36  PRO36       0.0892
     20  N         -8.0100    8.1730   -0.9730 N.3    39  LEU39      -0.1245
     21  CA        -8.4720    6.8530   -1.4910 C.3    39  LEU39       0.1561
     22  C         -9.5060    7.0670   -2.5970 C.2    39  LEU39       0.2260
     23  O         -9.9350    6.1350   -3.2480 O.2    39  LEU39      -0.2867
     24  CB        -9.0580    6.0270   -0.3480 C.3    39  LEU39       0.0270
     25  CG        -7.9740    5.7920    0.7030 C.3    39  LEU39       0.0019
     26  CD1       -8.5640    5.0090    1.8750 C.3    39  LEU39       0.0001
     27  CD2       -6.8210    4.9920    0.0860 C.3    39  LEU39       0.0001
     28  N          0.2200    5.3150    2.5820 N.3    46  ALA46      -0.1245
     29  CA        -0.4040    5.1510    3.9250 C.3    46  ALA46       0.1562
     30  C         -0.0550    6.3370    4.8270 C.2    46  ALA46       0.2260
     31  O         -0.6420    6.5090    5.8780 O.2    46  ALA46      -0.2867
     32  CB         0.1010    3.8580    4.5630 C.3    46  ALA46       0.0290
     33  N         -1.8750    2.2460    0.7300 N.3    60  ALA60      -0.1231
     34  CA        -3.0970    1.4930    1.1360 C.3    60  ALA60       0.1694
     35  C         -4.2520    1.7310    0.1660 C.2    60  ALA60       0.2593
     36  O         -4.2750    2.6950   -0.5790 O.2    60  ALA60      -0.2718
     37  CB        -3.5150    1.9360    2.5390 C.3    60  ALA60       0.0304
     38  N         -5.2190    0.8410    0.1840 N.am   61  GLY61      -0.1942
     39  CA        -6.3920    0.9780   -0.7230 C.3    61  GLY61       0.2014
     40  C         -7.4690   -0.0620   -0.3610 C.2    61  GLY61       0.2638
     41  O         -7.1820   -1.1520    0.1240 O.2    61  GLY61      -0.2714
     42  N         -8.7100    0.2820   -0.5950 N.am   62  HIS62      -0.1973
     43  CA        -9.8360   -0.6520   -0.2930 C.3    62  HIS62       0.1656
     44  C         -9.8220   -1.8320   -1.2760 C.2    62  HIS62       0.2291
     45  O         -9.1290   -1.8120   -2.2750 O.2    62  HIS62      -0.2864
     46  CB       -11.1620    0.0990   -0.4170 C.3    62  HIS62       0.0771
     47  CG       -11.2410    1.1550    0.6510 C.ar   62  HIS62       0.0820
     48  ND1      -12.4500    1.6020    1.1600 N.ar   62  HIS62      -0.2267
     49  CD2      -10.2700    1.8600    1.3190 C.ar   62  HIS62       0.1154
     50  CE1      -12.1780    2.5360    2.0900 C.ar   62  HIS62       0.1986
     51  NE2      -10.8650    2.7300    2.2270 N.ar   62  HIS62      -0.2212
     52  N         -3.2300   -8.1420   10.9550 N.3   103  VAL103     -0.1231
     53  CA        -3.3940   -7.6980   12.3710 C.3   103  VAL103      0.1692
     54  C         -4.7870   -7.1030   12.6030 C.2   103  VAL103      0.2592
     55  O         -5.4590   -6.6680   11.6900 O.2   103  VAL103     -0.2718
     56  CB        -2.3500   -6.6350   12.7310 C.3   103  VAL103      0.0266
     57  CG1       -1.5560   -7.0950   13.9540 C.3   103  VAL103      0.0020
     58  CG2       -1.3800   -6.3950   11.5680 C.3   103  VAL103      0.0020
     59  N         -5.2080   -7.0770   13.8410 N.am  104  LYS104     -0.1966
     60  CA        -6.5420   -6.5080   14.1950 C.3   104  LYS104      0.1713
     61  C         -6.7730   -5.1880   13.4470 C.2   104  LYS104      0.2458
     62  O         -5.8800   -4.6630   12.8110 O.2   104  LYS104     -0.2730
     63  CB        -6.5750   -6.2470   15.7040 C.3   104  LYS104      0.0311
     64  CG        -5.2420   -6.6700   16.3280 C.3   104  LYS104      0.0038
     65  CD        -5.2490   -6.3390   17.8200 C.3   104  LYS104      0.0206
     66  CE        -5.6680   -7.5770   18.6150 C.3   104  LYS104      0.1093
     67  NZ        -6.0870   -7.1710   19.9860 N.3   104  LYS104     -0.1314
     68  N         -7.9730   -4.6620   13.5210 N.am  105  PRO105     -0.2716
     69  CA        -8.3430   -3.3830   12.8410 C.3   105  PRO105      0.1536
     70  C         -7.8430   -2.1270   13.5740 C.2   105  PRO105      0.2599
     71  O         -8.4760   -1.0900   13.5340 O.2   105  PRO105     -0.2715
     72  CB        -9.8710   -3.4200   12.8330 C.3   105  PRO105      0.0310
     73  CG       -10.2520   -4.2340   14.0250 C.3   105  PRO105      0.0237
     74  CD        -9.1170   -5.2340   14.2580 C.3   105  PRO105      0.0939
     75  N         -6.7170   -2.2000   14.2350 N.am  106  THR106     -0.1937
     76  CA        -6.2010   -0.9940   14.9520 C.3   106  THR106      0.2028
     77  C         -4.6710   -1.0280   15.0610 C.2   106  THR106      0.2642
     78  O         -4.0640   -0.1110   15.5790 O.2   106  THR106     -0.2714
     79  CB        -6.7890   -0.9530   16.3580 C.3   106  THR106      0.1808
     80  OG1       -5.9490   -0.1750   17.1970 O.3   106  THR106     -0.2208
     81  CG2       -6.8960   -2.3720   16.9160 C.3   106  THR106      0.0379
     82  N         -4.0370   -2.0700   14.5970 N.am  107  ASP107     -0.1957
     83  CA        -2.5520   -2.1510   14.6980 C.3   107  ASP107      0.1840
     84  C         -1.9030   -1.1950   13.6950 C.2   107  ASP107      0.2621
     85  O         -1.1890   -1.6030   12.8040 O.2   107  ASP107     -0.2715
     86  CB        -2.1080   -3.5840   14.4050 C.3   107  ASP107      0.1450
     87  CG        -0.8350   -3.9000   15.1890 C.2   107  ASP107      0.3671
     88  OD1       -0.9510   -4.2690   16.3450 O.co2 107  ASP107     -0.2456
     89  OD2        0.2350   -3.7720   14.6180 O.co2 107  ASP107     -0.2456
     90  N         -2.1600    0.0740   13.8210 N.am  108  VAL108     -0.1977
     91  CA        -1.5690    1.0430   12.8540 C.3   108  VAL108      0.1596
     92  C         -0.0820    0.7250   12.6500 C.2   108  VAL108      0.2287
     93  O          0.4620    0.9460   11.5940 O.2   108  VAL108     -0.2864
     94  CB        -1.7020    2.4640   13.4060 C.3   108  VAL108      0.0276
     95  CG1       -1.6300    3.4710   12.2580 C.3   108  VAL108      0.0022
     96  CG2       -3.0420    2.6080   14.1270 C.3   108  VAL108      0.0022
     97  N          1.2940   -1.2460   11.4610 N.3   110  VAL110     -0.1231
     98  CA         1.5470   -1.9380   10.1640 C.3   110  VAL110      0.1692
     99  C          2.4180   -1.0380    9.2880 C.2   110  VAL110      0.2591
    100  O          3.1790   -1.4990    8.4600 O.2   110  VAL110     -0.2718
    101  CB         0.2210   -2.2250    9.4620 C.3   110  VAL110      0.0266
    102  CG1       -0.4870   -3.3840   10.1600 C.3   110  VAL110      0.0020
    103  CG2       -0.6600   -0.9790    9.5030 C.3   110  VAL110      0.0020
    104  N          2.2920    0.2480    9.4550 N.am  111  LEU111     -0.1980
    105  CA         3.1010    1.1740    8.6110 C.3   111  LEU111      0.1596
    106  C          4.5530    0.7000    8.6780 C.2   111  LEU111      0.2287
    107  O          5.3730    1.0800    7.8680 O.2   111  LEU111     -0.2864
    108  CB         3.0040    2.6120    9.1340 C.3   111  LEU111      0.0297
    109  CG         1.5360    3.0170    9.3020 C.3   111  LEU111      0.0022
    110  CD1        1.4360    4.5400    9.4070 C.3   111  LEU111      0.0001
    111  CD2        0.7210    2.5400    8.0970 C.3   111  LEU111      0.0001
    112  N         -0.6740   -2.2660    1.8960 N.3   124  ILE124     -0.1245
    113  CA        -1.8140   -2.3410    2.8520 C.3   124  ILE124      0.1561
    114  C         -3.0840   -2.5320    2.0400 C.2   124  ILE124      0.2260
    115  O         -3.4550   -1.7090    1.2310 O.2   124  ILE124     -0.2867
    116  CB        -1.9240   -1.0540    3.6780 C.3   124  ILE124      0.0252
    117  CG1       -0.7530   -0.9640    4.6570 C.3   124  ILE124      0.0019
    118  CG2       -3.2330   -1.0650    4.4730 C.3   124  ILE124      0.0019
    119  CD1       -0.7900    0.3850    5.3780 C.3   124  ILE124      0.0001
    120  N         -7.0330   -3.7090    2.7530 N.3   126  CYS126     -0.1235
    121  CA        -8.0450   -4.1980    3.7380 C.3   126  CYS126      0.1677
    122  C         -8.9870   -5.2170    3.0930 C.2   126  CYS126      0.2270
    123  O         -9.1540   -5.2570    1.8930 O.2   126  CYS126     -0.2867
    124  CB        -8.8570   -3.0110    4.2640 C.3   126  CYS126      0.0956
    125  SG       -10.2140   -2.6510    3.1210 S.3   126  CYS126     -0.0801
    126  N        -18.1230   -3.2050    9.2230 N.3   135  VAL135     -0.1231
    127  CA       -16.7210   -2.7040    9.1350 C.3   135  VAL135      0.1692
    128  C        -15.7760   -3.8450    8.7840 C.2   135  VAL135      0.2592
    129  O        -16.1360   -5.0020    8.7930 O.2   135  VAL135     -0.2718
    130  CB       -16.2940   -2.0930   10.4710 C.3   135  VAL135      0.0266
    131  CG1      -15.8330   -3.2000   11.4210 C.3   135  VAL135      0.0020
    132  CG2      -15.1420   -1.1020   10.2520 C.3   135  VAL135      0.0020
    133  N        -14.5680   -3.5050    8.4680 N.am  136  TRP136     -0.1976
    134  CA       -13.5530   -4.5330    8.0990 C.3   136  TRP136      0.1640
    135  C        -12.8790   -5.0520    9.3730 C.2   136  TRP136      0.2290
    136  O        -12.3210   -4.2960   10.1420 O.2   136  TRP136     -0.2864
    137  CB       -12.5240   -3.8990    7.1630 C.3   136  TRP136      0.0576
    138  CG       -13.2500   -3.0960    6.1300 C.ar  136  TRP136      0.0006
    139  CD1      -13.8530   -1.9030    6.3530 C.ar  136  TRP136      0.0946
    140  CD2      -13.4710   -3.4060    4.7210 C.ar  136  TRP136      0.0152
    141  NE1      -14.4330   -1.4670    5.1750 N.ar  136  TRP136     -0.2442
    142  CE2      -14.2230   -2.3570    4.1420 C.ar  136  TRP136      0.0810
    143  CE3      -13.0980   -4.4840    3.8980 C.ar  136  TRP136      0.0012
    144  CZ2      -14.5910   -2.3760    2.7970 C.ar  136  TRP136      0.0191
    145  CZ3      -13.4670   -4.5060    2.5420 C.ar  136  TRP136      0.0001
    146  CH2      -14.2120   -3.4530    1.9930 C.ar  136  TRP136      0.0015
    147  N         -7.1090   -7.2080    8.8600 N.3   139  ARG139     -0.1245
    148  CA        -6.3630   -6.2540    7.9890 C.3   139  ARG139      0.1563
    149  C         -5.2390   -7.0070    7.2770 C.2   139  ARG139      0.2260
    150  O         -4.5650   -7.8280    7.8630 O.2   139  ARG139     -0.2867
    151  CB        -5.7550   -5.1390    8.8380 C.3   139  ARG139      0.0307
    152  CG        -6.8660   -4.3640    9.5460 C.3   139  ARG139      0.0489
    153  CD        -7.7080   -3.6020    8.5190 C.3   139  ARG139      0.2205
    154  NE        -8.3800   -2.4530    9.1870 N.pl3 139  ARG139     -0.0865
    155  CZ        -8.9010   -1.4940    8.4720 C.cat 139  ARG139      0.5346
    156  NH1       -8.8390   -1.5380    7.1690 N.pl3 139  ARG139      0.1354
    157  NH2       -9.4850   -0.4880    9.0620 N.pl3 139  ARG139      0.1354
    158  N         -1.6660   -6.6650    5.2160 N.3   141  ILE141     -0.1245
    159  CA        -0.5860   -5.7290    4.7770 C.3   141  ILE141      0.1561
    160  C          0.7180   -6.4920    4.4980 C.2   141  ILE141      0.2260
    161  O          1.2560   -7.1960    5.3300 O.2   141  ILE141     -0.2867
    162  CB        -0.3830   -4.6190    5.8220 C.3   141  ILE141      0.0252
    163  CG1        0.4880   -5.0780    6.9900 C.3   141  ILE141      0.0019
    164  CG2       -1.7370   -4.1800    6.3610 C.3   141  ILE141      0.0019
    165  CD1        1.9010   -4.5420    6.7700 C.3   141  ILE141      0.0001
@<TRIPOS>BOND
     1    23    22    2
     2    22    21    1
     3    45    44    2
     4    21    20    1
     5    21    24    1
     6    44    43    1
     7    39    40    1
     8    39    38    1
     9    42    40   am
    10    42    43    1
    11    36    35    2
    12    46    43    1
    13    46    47    1
    14    40    41    2
    15    24    25    1
    16    16    15    2
    17    27    25    1
    18    35    38   am
    19    35    34    1
    20    47    48   ar
    21    47    49   ar
    22    25    26    1
    23    33    34    1
    24    15    14    1
    25    34    37    1
    26    48    50   ar
    27   115   114    2
    28    49    51   ar
    29   123   122    2
    30   112   113    1
    31     4     3    2
    32   146   145   ar
    33   146   144   ar
    34   114   113    1
    35    50    51   ar
    36    14    17    1
    37    14    13    1
    38     9    12    1
    39     9     8    1
    40     9    10    1
    41   145   143   ar
    42    28    29    1
    43     1     7    1
    44     1     2    1
    45   120   121    1
    46     3     8   am
    47     3     2    1
    48   144   142   ar
    49   113   116    1
    50    17    18    1
    51   122   121    1
    52    10    11    2
    53   125   124    1
    54    13    19    1
    55     7     6    1
    56     2     5    1
    57   116   118    1
    58   116   117    1
    59   121   124    1
    60   143   140   ar
    61    29    32    1
    62    29    30    1
    63   142   140   ar
    64   142   141   ar
    65    18    19    1
    66   160   159    1
    67   160   161    2
    68   117   119    1
    69   140   138   ar
    70     6     5    1
    71   159   158    1
    72   159   162    1
    73    30    31    2
    74   141   139   ar
    75   162   164    1
    76   162   163    1
    77   138   139   ar
    78   138   137    1
    79   165   163    1
    80   137   134    1
    81   156   155    1
    82   149   150    2
    83   149   148    1
    84   107   106    2
    85   148   151    1
    86   148   147    1
    87   111   109    1
    88   134   133    1
    89   134   135    1
    90   100    99    2
    91   133   128   am
    92   155   157    1
    93   155   154    2
    94   153   154    1
    95   153   152    1
    96   105   106    1
    97   105   108    1
    98   105   104    1
    99   128   129    2
   100   128   127    1
   101   151   152    1
   102   108   109    1
   103   127   126    1
   104   127   130    1
   105    99   104   am
   106    99    98    1
   107   109   110    1
   108   135   136    2
   109   101   103    1
   110   101   102    1
   111   101    98    1
   112    98    97    1
   113   132   130    1
   114   130   131    1
   115    52    53    1
   116    58    56    1
   117    93    92    2
   118    55    54    2
   119    95    94    1
   120    53    54    1
   121    53    56    1
   122    54    59   am
   123    92    91    1
   124    56    57    1
   125    85    84    2
   126    62    61    2
   127    72    69    1
   128    72    73    1
   129    69    68    1
   130    69    70    1
   131    91    94    1
   132    91    90    1
   133    94    96    1
   134    61    68   am
   135    61    60    1
   136    68    74    1
   137    71    70    2
   138    70    75   am
   139    84    90   am
   140    84    83    1
   141    59    60    1
   142    73    74    1
   143    60    63    1
   144    75    76    1
   145    86    83    1
   146    86    87    1
   147    82    83    1
   148    82    77   am
   149    89    87   ar
   150    76    77    1
   151    76    79    1
   152    77    78    2
   153    87    88   ar
   154    63    64    1
   155    64    65    1
   156    79    81    1
   157    79    80    1
   158    65    66    1
   159    66    67    1
