@<TRIPOS>MOLECULE
tmp/2klhB00.pdb
 157 154 0 0 0
SMALL
GASTEIGER

@<TRIPOS>ATOM
      1  N         -5.2760   14.6250   -3.2350 N.3     6  TYR6       -0.1227
      2  CA        -5.5350   13.8770   -2.0090 C.3     6  TYR6        0.1736
      3  C         -4.2560   13.7590   -1.1800 C.2     6  TYR6        0.2595
      4  O         -3.2330   13.2780   -1.6700 O.2     6  TYR6       -0.2718
      5  CB        -6.0880   12.4830   -2.3370 C.3     6  TYR6        0.0548
      6  CG        -6.7100   11.7680   -1.1500 C.ar    6  TYR6       -0.0200
      7  CD1       -6.0110   11.6150    0.0400 C.ar    6  TYR6       -0.0009
      8  CD2       -7.9940   11.2420   -1.2220 C.ar    6  TYR6       -0.0009
      9  CE1       -6.5690   10.9640    1.1220 C.ar    6  TYR6        0.0417
     10  CE2       -8.5600   10.5890   -0.1410 C.ar    6  TYR6        0.0417
     11  CZ        -7.8430   10.4530    1.0270 C.ar    6  TYR6        0.1957
     12  OH        -8.4030    9.8040    2.1040 O.3     6  TYR6       -0.2866
     13  N         -4.3210   14.2010    0.0750 N.am    7  PHE7       -0.1962
     14  CA        -3.1670   14.1460    0.9690 C.3     7  PHE7        0.1771
     15  C         -3.1350   12.8290    1.7490 C.2     7  PHE7        0.2620
     16  O         -4.1540   12.3860    2.2780 O.2     7  PHE7       -0.2715
     17  CB        -3.1840   15.3400    1.9290 C.3     7  PHE7        0.0574
     18  CG        -2.1570   15.2550    3.0230 C.ar    7  PHE7       -0.0200
     19  CD1       -2.3870   14.4770    4.1450 C.ar    7  PHE7       -0.0042
     20  CD2       -0.9640   15.9530    2.9280 C.ar    7  PHE7       -0.0042
     21  CE1       -1.4460   14.3950    5.1530 C.ar    7  PHE7       -0.0003
     22  CE2       -0.0200   15.8750    3.9340 C.ar    7  PHE7       -0.0003
     23  CZ        -0.2610   15.0950    5.0470 C.ar    7  PHE7       -0.0000
     24  N         -1.9560   12.2090    1.8140 N.am    8  CYS8       -0.1954
     25  CA        -1.7870   10.9430    2.5240 C.3     8  CYS8        0.1843
     26  C         -0.8200   11.0900    3.6990 C.2     8  CYS8        0.2626
     27  O          0.3870   11.2630    3.5070 O.2     8  CYS8       -0.2714
     28  CB        -1.2860    9.8620    1.5630 C.3     8  CYS8        0.0997
     29  SG        -2.5940    9.0830    0.5870 S.3     8  CYS8       -0.0797
     30  N         -1.3620   11.0170    4.9150 N.am    9  GLY9       -0.1940
     31  CA        -0.5450   11.1400    6.1110 C.3     9  GLY9        0.2014
     32  C         -1.0030   10.2180    7.2280 C.2     9  GLY9        0.2640
     33  O         -2.1910   10.1650    7.5460 O.2     9  GLY9       -0.2714
     34  N         -0.0550    9.4940    7.8230 N.am   10  SER10      -0.1935
     35  CA        -0.3580    8.5680    8.9140 C.3    10  SER10       0.2055
     36  C         -0.7560    9.3310   10.1720 C.2    10  SER10       0.2643
     37  O          0.0290   10.1210   10.6990 O.2    10  SER10      -0.2714
     38  CB         0.8520    7.6810    9.2100 C.3    10  SER10       0.2130
     39  OG         0.4840    6.5550    9.9890 O.3    10  SER10      -0.2179
     40  N         -1.9770    9.0980   10.6490 N.am   11  ILE11      -0.1963
     41  CA        -2.4720    9.7570   11.8220 C.3    11  ILE11       0.1727
     42  C         -2.4560    8.8200   13.0280 C.2    11  ILE11       0.2616
     43  O         -2.0780    9.2210   14.1280 O.2    11  ILE11      -0.2715
     44  CB        -3.8900   10.3130   11.5640 C.3    11  ILE11       0.0290
     45  CG1       -4.9670    9.2140   11.6600 C.3    11  ILE11       0.0022
     46  CG2       -3.9540   11.0240   10.2140 C.3    11  ILE11       0.0023
     47  CD1       -6.1500    9.4170   10.7350 C.3    11  ILE11       0.0001
     48  N         -2.8560    7.5660   12.8020 N.am   12  ARG12      -0.1977
     49  CA        -2.8910    6.5470   13.8500 C.3    12  ARG12       0.1597
     50  C         -3.6380    7.0580   15.0840 C.2    12  ARG12       0.2287
     51  O         -3.2500    6.7820   16.2210 O.2    12  ARG12      -0.2864
     52  CB        -1.4640    6.1250   14.2200 C.3    12  ARG12       0.0334
     53  CG        -1.2290    4.6240   14.1320 C.3    12  ARG12       0.0492
     54  CD        -0.8010    4.0480   15.4730 C.3    12  ARG12       0.2205
     55  NE         0.2310    3.0210   15.3290 N.pl3  12  ARG12      -0.0865
     56  CZ         1.5270    3.2810   15.1280 C.cat  12  ARG12       0.5346
     57  NH1        1.9560    4.5370   15.0170 N.pl3  12  ARG12       0.1354
     58  NH2        2.3960    2.2800   15.0320 N.pl3  12  ARG12       0.1354
     59  N         -2.6470   18.5600    8.8080 N.3    21  TYR21      -0.1241
     60  CA        -3.7560   18.3640    7.8780 C.3    21  TYR21       0.1605
     61  C         -4.5280   19.6560    7.6240 C.2    21  TYR21       0.2264
     62  O         -4.9450   19.9190    6.4970 O.2    21  TYR21      -0.2867
     63  CB        -4.7070   17.2830    8.3960 C.3    21  TYR21       0.0534
     64  CG        -4.5150   15.9480    7.7210 C.ar   21  TYR21      -0.0201
     65  CD1       -5.0290   15.7270    6.4540 C.ar   21  TYR21      -0.0009
     66  CD2       -3.8200   14.9140    8.3360 C.ar   21  TYR21      -0.0009
     67  CE1       -4.8590   14.5180    5.8190 C.ar   21  TYR21       0.0417
     68  CE2       -3.6470   13.6980    7.7010 C.ar   21  TYR21       0.0417
     69  CZ        -4.1680   13.5070    6.4460 C.ar   21  TYR21       0.1957
     70  OH        -3.9980   12.2980    5.8130 O.3    21  TYR21      -0.2866
     71  N         -8.9670   14.3390    1.9880 N.3    36  THR36      -0.1218
     72  CA        -8.5720   14.0460    3.3610 C.3    36  THR36       0.1862
     73  C         -9.1680   15.0410    4.3540 C.2    36  THR36       0.2287
     74  O         -8.4650   15.6500    5.1630 O.2    36  THR36      -0.2866
     75  CB        -7.0540   14.0030    3.4710 C.3    36  THR36       0.1770
     76  OG1       -6.4380   14.1410    2.2000 O.3    36  THR36      -0.2211
     77  CG2       -6.5480   12.7190    4.0890 C.3    36  THR36       0.0375
     78  N        -11.8340   14.0910    6.3530 N.3    38  HIS38      -0.1241
     79  CA       -12.2430   13.2880    7.5080 C.3    38  HIS38       0.1621
     80  C        -11.3190   13.5230    8.7090 C.2    38  HIS38       0.2264
     81  O        -11.7610   13.4750    9.8570 O.2    38  HIS38      -0.2867
     82  CB       -12.2170   11.8040    7.1430 C.3    38  HIS38       0.0745
     83  CG       -10.8310   11.3160    6.8810 C.ar   38  HIS38       0.0817
     84  ND1      -10.1470   11.6180    5.7280 N.ar   38  HIS38      -0.2268
     85  CD2       -9.9750   10.6070    7.6510 C.ar   38  HIS38       0.1154
     86  CE1       -8.9350   11.1200    5.7950 C.ar   38  HIS38       0.1986
     87  NE2       -8.7990   10.5020    6.9540 N.ar   38  HIS38      -0.2212
     88  N        -13.9110    3.9390    6.5660 N.3    58  ILE58      -0.1245
     89  CA       -12.6560    4.6620    6.3830 C.3    58  ILE58       0.1561
     90  C        -12.0140    4.3010    5.0470 C.2    58  ILE58       0.2260
     91  O        -11.5520    5.1770    4.3120 O.2    58  ILE58      -0.2867
     92  CB       -11.6650    4.3500    7.5370 C.3    58  ILE58       0.0252
     93  CG1      -12.0060    5.1780    8.7790 C.3    58  ILE58       0.0019
     94  CG2      -10.2210    4.5910    7.1110 C.3    58  ILE58       0.0019
     95  CD1      -11.7330    4.4570   10.0820 C.3    58  ILE58       0.0001
     96  N        -14.2510    5.5970    2.1050 N.3    61  GLN61      -0.1231
     97  CA       -14.1660    7.0430    1.9120 C.3    61  GLN61       0.1698
     98  C        -12.9110    7.4230    1.1260 C.2    61  GLN61       0.2592
     99  O        -12.9530    8.3080    0.2700 O.2    61  GLN61      -0.2718
    100  CB       -14.1760    7.7680    3.2600 C.3    61  GLN61       0.0381
    101  CG       -15.5430    8.3090    3.6530 C.3    61  GLN61       0.0905
    102  CD       -16.3030    7.3710    4.5720 C.2    61  GLN61       0.2608
    103  OE1      -17.0580    6.5130    4.1140 O.2    61  GLN61      -0.2717
    104  NE2      -16.1070    7.5280    5.8780 N.am   61  GLN61      -0.0878
    105  N        -11.7960    6.7500    1.4230 N.am   62  ALA62      -0.1980
    106  CA       -10.5320    7.0210    0.7430 C.3    62  ALA62       0.1597
    107  C        -10.5840    6.5970   -0.7260 C.2    62  ALA62       0.2287
    108  O         -9.9960    7.2530   -1.5880 O.2    62  ALA62      -0.2864
    109  CB        -9.3840    6.3250    1.4610 C.3    62  ALA62       0.0319
    110  N        -12.6470    9.2150   -2.7910 N.3    65  TRP65      -0.1241
    111  CA       -11.9270   10.4700   -2.9720 C.3    65  TRP65       0.1605
    112  C        -10.8310   10.3480   -4.0280 C.2    65  TRP65       0.2264
    113  O        -10.5900   11.2880   -4.7860 O.2    65  TRP65      -0.2867
    114  CB       -11.3110   10.9240   -1.6530 C.3    65  TRP65       0.0550
    115  CG       -12.1990   11.8150   -0.8400 C.ar   65  TRP65       0.0003
    116  CD1      -13.1370   12.6950   -1.2990 C.ar   65  TRP65       0.0946
    117  CD2      -12.2190   11.9120    0.5830 C.ar   65  TRP65       0.0152
    118  NE1      -13.7380   13.3360   -0.2400 N.ar   65  TRP65      -0.2442
    119  CE2      -13.1900   12.8690    0.9270 C.ar   65  TRP65       0.0810
    120  CE3      -11.5060   11.2790    1.5990 C.ar   65  TRP65       0.0012
    121  CZ2      -13.4640   13.2050    2.2510 C.ar   65  TRP65       0.0191
    122  CZ3      -11.7770   11.6110    2.9080 C.ar   65  TRP65       0.0001
    123  CH2      -12.7470   12.5650    3.2260 C.ar   65  TRP65       0.0015
    124  N          4.8520    4.0600    7.1420 N.3    80  SER80      -0.1202
    125  CA         3.5170    3.7890    7.6620 C.3    80  SER80       0.2020
    126  C          2.8130    2.7150    6.8340 C.2    80  SER80       0.2619
    127  O          2.7180    2.8230    5.6110 O.2    80  SER80      -0.2717
    128  CB         2.6840    5.0730    7.6790 C.3    80  SER80       0.2103
    129  OG         3.2010    6.0010    8.6170 O.3    80  SER80      -0.2182
    130  N          2.3290    1.6780    7.5150 N.am   81  LEU81      -0.1965
    131  CA         1.6350    0.5710    6.8570 C.3    81  LEU81       0.1728
    132  C          0.3340    1.0350    6.1970 C.2    81  LEU81       0.2617
    133  O          0.0900    0.7410    5.0250 O.2    81  LEU81      -0.2715
    134  CB         1.3470   -0.5460    7.8690 C.3    81  LEU81       0.0311
    135  CG         0.5890   -1.7560    7.3160 C.3    81  LEU81       0.0022
    136  CD1        1.4290   -2.4930    6.2850 C.3    81  LEU81       0.0001
    137  CD2        0.1870   -2.6940    8.4470 C.3    81  LEU81       0.0001
    138  N         -0.4930    1.7620    6.9520 N.am   82  GLY82      -0.1940
    139  CA        -1.7550    2.2560    6.4200 C.3    82  GLY82       0.2014
    140  C         -1.5620    3.2330    5.2750 C.2    82  GLY82       0.2638
    141  O         -2.2650    3.1580    4.2660 O.2    82  GLY82      -0.2714
    142  N         -0.6020    4.1460    5.4280 N.am   83  VAL83      -0.1977
    143  CA        -0.3160    5.1350    4.3940 C.3    83  VAL83       0.1596
    144  C          0.2890    4.4710    3.1540 C.2    83  VAL83       0.2287
    145  O         -0.0140    4.8630    2.0260 O.2    83  VAL83      -0.2864
    146  CB         0.6340    6.2400    4.9050 C.3    83  VAL83       0.0276
    147  CG1        0.8610    7.2940    3.8280 C.3    83  VAL83       0.0022
    148  CG2        0.0860    6.8750    6.1800 C.3    83  VAL83       0.0022
    149  N         -2.4010    3.1230    0.9160 N.3    86  GLU86      -0.1245
    150  CA        -3.0570    4.1900    0.1620 C.3    86  GLU86       0.1567
    151  C         -2.2370    4.5710   -1.0700 C.2    86  GLU86       0.2260
    152  O         -2.7930    4.8000   -2.1450 O.2    86  GLU86      -0.2867
    153  CB        -3.2700    5.4210    1.0460 C.3    86  GLU86       0.0388
    154  CG        -4.2190    5.1770    2.2090 C.3    86  GLU86       0.1160
    155  CD        -4.2720    6.3460    3.1700 C.2    86  GLU86       0.3649
    156  OE1       -3.3110    6.5150    3.9480 O.co2  86  GLU86      -0.2457
    157  OE2       -5.2730    7.0930    3.1440 O.co2  86  GLU86      -0.2457
@<TRIPOS>BOND
     1   113   112    2
     2   112   111    1
     3     1     2    1
     4   111   110    1
     5   111   114    1
     6     5     2    1
     7     5     6    1
     8   152   151    2
     9     2     3    1
    10     4     3    2
    11   114   115    1
    12   108   107    2
    13   116   115   ar
    14   116   118   ar
    15     8     6   ar
    16     8    10   ar
    17     3    13   am
    18     6     7   ar
    19   151   150    1
    20   115   117   ar
    21   107   106    1
    22   118   119   ar
    23    10    11   ar
    24     7     9   ar
    25    13    14    1
    26   150   149    1
    27   150   153    1
    28    99    98    2
    29   117   119   ar
    30   117   120   ar
    31    29    28    1
    32   106   105    1
    33   106   109    1
    34   119   121   ar
    35    14    15    1
    36    14    17    1
    37    11     9   ar
    38    11    12    1
    39   153   154    1
    40    98   105   am
    41    98    97    1
    42    28    25    1
    43   120   122   ar
    44    15    24   am
    45    15    16    2
    46    24    25    1
    47    97    96    1
    48    97   100    1
    49    17    18    1
    50    71    72    1
    51   145   144    2
    52    76    75    1
    53   154   155    1
    54   121   123   ar
    55    25    26    1
    56   122   123   ar
    57    20    18   ar
    58    20    22   ar
    59    18    19   ar
    60   157   155   ar
    61   144   143    1
    62   155   156   ar
    63   100   101    1
    64    72    75    1
    65    72    73    1
    66    75    77    1
    67    27    26    2
    68   101   102    1
    69    26    30   am
    70   147   146    1
    71    22    23   ar
    72   103   102    2
    73    19    21   ar
    74   141   140    2
    75    91    90    2
    76    73    74    2
    77   143   146    1
    78   143   142    1
    79   102   104   am
    80   146   148    1
    81    30    31    1
    82   133   132    2
    83    90    89    1
    84    23    21   ar
    85   140   142   am
    86   140   139    1
    87   127   126    2
    88    84    86   ar
    89    84    83   ar
    90    86    87   ar
    91    70    69    1
    92    67    69   ar
    93    67    65   ar
    94    31    32    1
    95   132   131    1
    96   132   138   am
    97   136   135    1
    98    78    79    1
    99    89    88    1
   100    89    92    1
   101   139   138    1
   102    69    68   ar
   103    65    64   ar
   104    62    61    2
   105   126   130   am
   106   126   125    1
   107   131   130    1
   108   131   134    1
   109    83    82    1
   110    83    85   ar
   111    87    85   ar
   112    94    92    1
   113   124   125    1
   114    82    79    1
   115    32    33    2
   116    32    34   am
   117   135   134    1
   118   135   137    1
   119    79    80    1
   120    92    93    1
   121    61    60    1
   122   125   128    1
   123   128   129    1
   124    68    66   ar
   125    64    66   ar
   126    64    63    1
   127    34    35    1
   128    60    63    1
   129    60    59    1
   130    80    81    2
   131    93    95    1
   132    35    38    1
   133    35    36    1
   134    38    39    1
   135    36    40   am
   136    36    37    2
   137    46    44    1
   138    40    41    1
   139    47    45    1
   140    44    45    1
   141    44    41    1
   142    41    42    1
   143    48    42   am
   144    48    49    1
   145    42    43    2
   146    49    52    1
   147    49    50    1
   148    53    52    1
   149    53    54    1
   150    57    56    1
   151    58    56    1
   152    50    51    2
   153    56    55    2
   154    55    54    1
