@<TRIPOS>MOLECULE
tmp/2kmbC00.pdb
 100 95 0 0 0
SMALL
GASTEIGER

@<TRIPOS>ATOM
      1  N         48.3900   39.5160   30.5980 N.3   110  LYS110     -0.1245
      2  CA        49.4840   39.5880   29.6400 C.3   110  LYS110      0.1561
      3  C         50.4200   40.6550   30.2130 C.2   110  LYS110      0.2260
      4  O         49.9950   41.4770   31.0320 O.2   110  LYS110     -0.2867
      5  CB        48.9540   40.0360   28.2700 C.3   110  LYS110      0.0271
      6  CG        50.0440   40.3240   27.2430 C.3   110  LYS110      0.0035
      7  CD        49.5370   41.2350   26.1320 C.3   110  LYS110      0.0206
      8  CE        50.6910   41.9090   25.3760 C.3   110  LYS110      0.1093
      9  NZ        51.5950   42.7010   26.2730 N.3   110  LYS110     -0.1314
     10  N         52.2900   43.8480   31.1610 N.3   112  ASP112     -0.1225
     11  CA        51.8850   45.2540   31.1630 C.3   112  ASP112      0.1805
     12  C         50.3730   45.4960   31.1350 C.2   112  ASP112      0.2597
     13  O         49.9150   46.6140   30.8600 O.2   112  ASP112     -0.2718
     14  CB        52.6010   46.0290   30.0450 C.3   112  ASP112      0.1424
     15  CG        54.1050   46.1550   30.2870 C.2   112  ASP112      0.3668
     16  OD1       54.5210   46.2110   31.4640 O.co2 112  ASP112     -0.2456
     17  OD2       54.8700   46.2040   29.3010 O.co2 112  ASP112     -0.2456
     18  N         49.6020   44.4490   31.4230 N.am  113  GLU113     -0.1979
     19  CA        48.1460   44.5420   31.4760 C.3   113  GLU113      0.1602
     20  C         47.7620   44.2520   32.9210 C.2   113  GLU113      0.2287
     21  O         48.4650   43.5190   33.6080 O.2   113  GLU113     -0.2864
     22  CB        47.4960   43.5130   30.5460 C.3   113  GLU113      0.0415
     23  CG        47.9160   43.6180   29.0730 C.3   113  GLU113      0.1163
     24  CD        47.5910   44.9630   28.4480 C.2   113  GLU113      0.3649
     25  OE1       46.6560   45.6420   28.9240 O.co2 113  GLU113     -0.2457
     26  OE2       48.2600   45.3350   27.4590 O.co2 113  GLU113     -0.2457
     27  N         46.0780   47.8350   31.5550 N.3   115  ASN115     -0.1240
     28  CA        46.5700   49.2040   31.4230 C.3   115  ASN115      0.1653
     29  C         45.5610   50.3450   31.2700 C.2   115  ASN115      0.2266
     30  O         45.9720   51.4980   31.2010 O.2   115  ASN115     -0.2867
     31  CB        47.5800   49.2850   30.2790 C.3   115  ASN115      0.1155
     32  CG        46.9690   48.9740   28.9110 C.2   115  ASN115      0.2627
     33  OD1       45.7980   48.6470   28.7990 O.2   115  ASN115     -0.2716
     34  ND2       47.7690   49.1040   27.8710 N.am  115  ASN115     -0.0877
     35  N         44.0180   51.3850   28.7600 N.3   117  HIS117     -0.1226
     36  CA        44.4790   52.1530   27.6160 C.3   117  HIS117      0.1752
     37  C         43.6200   53.2550   27.0130 C.2   117  HIS117      0.2597
     38  O         42.4260   53.0750   26.7660 O.2   117  HIS117     -0.2718
     39  CB        44.9260   51.2280   26.5030 C.3   117  HIS117      0.0759
     40  CG        45.8000   51.9130   25.5070 C.ar  117  HIS117      0.0818
     41  ND1       45.2960   52.5440   24.3940 N.ar  117  HIS117     -0.2268
     42  CD2       47.1410   52.1310   25.4930 C.ar  117  HIS117      0.1154
     43  CE1       46.2810   53.1410   23.7410 C.ar  117  HIS117      0.1986
     44  NE2       47.4130   52.9020   24.3940 N.ar  117  HIS117     -0.2212
     45  N         44.2530   54.3920   26.7430 N.am  118  GLY118     -0.1942
     46  CA        43.5640   55.5100   26.1220 C.3   118  GLY118      0.2014
     47  C         42.3180   55.9770   26.8300 C.2   118  GLY118      0.2640
     48  O         42.3430   56.3470   28.0050 O.2   118  GLY118     -0.2714
     49  N         41.2190   55.9840   26.0900 N.am  119  SER119     -0.1935
     50  CA        39.9320   56.4260   26.6190 C.3   119  SER119      0.2055
     51  C         39.4520   55.5920   27.8010 C.2   119  SER119      0.2644
     52  O         38.5580   56.0150   28.5280 O.2   119  SER119     -0.2714
     53  CB        38.8810   56.4460   25.5050 C.3   119  SER119      0.2130
     54  OG        38.9220   55.2520   24.7340 O.3   119  SER119     -0.2179
     55  N         40.0550   54.4200   27.9920 N.am  120  GLY120     -0.1939
     56  CA        39.6860   53.5720   29.1060 C.3   120  GLY120      0.2014
     57  C         39.3320   52.1480   28.7280 C.2   120  GLY120      0.2638
     58  O         38.8240   51.8930   27.6360 O.2   120  GLY120     -0.2714
     59  N         39.6520   51.2100   29.6180 N.am  121  GLU121     -0.1977
     60  CA        39.3540   49.7950   29.4240 C.3   121  GLU121      0.1602
     61  C         38.9500   49.2150   30.7720 C.2   121  GLU121      0.2287
     62  O         39.7700   49.1200   31.6800 O.2   121  GLU121     -0.2864
     63  CB        40.5750   49.0630   28.8760 C.3   121  GLU121      0.0415
     64  CG        41.0160   49.5950   27.5330 C.3   121  GLU121      0.1163
     65  CD        42.1800   48.8390   26.9560 C.2   121  GLU121      0.3649
     66  OE1       43.1150   48.5040   27.7120 O.co2 121  GLU121     -0.2457
     67  OE2       42.1610   48.5880   25.7360 O.co2 121  GLU121     -0.2457
     68  N         43.7970   40.5300   28.8490 N.3   133  ASN133     -0.1225
     69  CA        44.0190   41.9100   28.4580 C.3   133  ASN133      0.1785
     70  C         42.7330   42.6540   28.7680 C.2   133  ASN133      0.2597
     71  O         41.6470   42.1540   28.4960 O.2   133  ASN133     -0.2718
     72  CB        44.3040   42.0160   26.9560 C.3   133  ASN133      0.1169
     73  CG        44.4040   43.4490   26.4950 C.2   133  ASN133      0.2627
     74  OD1       44.8370   44.3200   27.2480 O.2   133  ASN133     -0.2716
     75  ND2       43.9710   43.7140   25.2700 N.am  133  ASN133     -0.0877
     76  N         42.8360   43.8130   29.3990 N.am  134  ASP134     -0.1960
     77  CA        41.6300   44.5730   29.6720 C.3   134  ASP134      0.1840
     78  C         41.2930   45.3430   28.4030 C.2   134  ASP134      0.2621
     79  O         42.1950   45.7920   27.6960 O.2   134  ASP134     -0.2715
     80  CB        41.8000   45.5080   30.8840 C.3   134  ASP134      0.1450
     81  CG        42.8840   46.5570   30.6940 C.2   134  ASP134      0.3671
     82  OD1       43.8700   46.3240   29.9640 O.co2 134  ASP134     -0.2456
     83  OD2       42.7570   47.6260   31.3210 O.co2 134  ASP134     -0.2456
     84  N         40.0090   45.4320   28.0750 N.am  135  ILE135     -0.1977
     85  CA        39.5680   46.1460   26.8880 C.3   135  ILE135      0.1596
     86  C         38.3080   46.9330   27.1870 C.2   135  ILE135      0.2287
     87  O         37.7070   46.8090   28.2570 O.2   135  ILE135     -0.2864
     88  CB        39.2170   45.1990   25.7140 C.3   135  ILE135      0.0276
     89  CG1       38.1280   44.2170   26.1420 C.3   135  ILE135      0.0022
     90  CG2       40.4430   44.4880   25.2040 C.3   135  ILE135      0.0022
     91  CD1       37.3690   43.6230   24.9840 C.3   135  ILE135      0.0001
     92  N         33.3660   47.2720   23.1390 N.3   139  LYS139     -0.1245
     93  CA        33.7760   46.4600   21.9960 C.3   139  LYS139      0.1561
     94  C         32.8980   45.2110   21.9800 C.2   139  LYS139      0.2260
     95  O         32.3710   44.8110   23.0180 O.2   139  LYS139     -0.2867
     96  CB        35.2450   46.0700   22.1140 C.3   139  LYS139      0.0271
     97  CG        36.2070   47.2150   21.8480 C.3   139  LYS139      0.0035
     98  CD        37.6410   46.7790   22.0740 C.3   139  LYS139      0.0206
     99  CE        38.6270   47.8250   21.5780 C.3   139  LYS139      0.1093
    100  NZ        40.0430   47.3730   21.7450 N.3   139  LYS139     -0.1314
@<TRIPOS>BOND
     1    99   100    1
     2    99    98    1
     3    97    98    1
     4    97    96    1
     5    94    93    1
     6    94    95    2
     7    93    96    1
     8    93    92    1
     9    43    41   ar
    10    43    44   ar
    11    41    40   ar
    12    44    42   ar
    13    54    53    1
    14    91    89    1
    15    90    88    1
    16    75    73   am
    17     8     7    1
    18     8     9    1
    19    42    40   ar
    20    53    50    1
    21    40    39    1
    22    88    89    1
    23    88    85    1
    24    67    65   ar
    25    49    50    1
    26    49    47   am
    27    46    45    1
    28    46    47    1
    29     7     6    1
    30    73    72    1
    31    73    74    2
    32    39    36    1
    33    50    51    1
    34    45    37   am
    35    38    37    2
    36    47    48    2
    37    85    86    1
    38    85    84    1
    39    65    64    1
    40    65    66   ar
    41    72    69    1
    42    37    36    1
    43    86    87    2
    44     6     5    1
    45    26    24   ar
    46    64    63    1
    47    36    35    1
    48    58    57    2
    49    79    78    2
    50    51    55   am
    51    51    52    2
    52    34    32   am
    53    55    56    1
    54    84    78   am
    55     5     2    1
    56    78    77    1
    57    24    25   ar
    58    24    23    1
    59    69    70    1
    60    69    68    1
    61    71    70    2
    62    57    56    1
    63    57    59   am
    64    70    76   am
    65    33    32    2
    66    63    60    1
    67    32    31    1
    68    23    22    1
    69    17    15   ar
    70    76    77    1
    71    60    59    1
    72    60    61    1
    73     2     3    1
    74     2     1    1
    75    77    80    1
    76    82    81   ar
    77    14    15    1
    78    14    11    1
    79     3     4    2
    80    31    28    1
    81    15    16   ar
    82    22    19    1
    83    81    80    1
    84    81    83   ar
    85    61    62    2
    86    13    12    2
    87    12    11    1
    88    12    18   am
    89    10    11    1
    90    30    29    2
    91    29    28    1
    92    18    19    1
    93    28    27    1
    94    19    20    1
    95    20    21    2
