@<TRIPOS>MOLECULE
tmp/2kmxA00.pdb
 111 104 0 0 0
SMALL
GASTEIGER

@<TRIPOS>ATOM
      1  N        -15.4510  -13.8910  -12.4740 N.3     3  THR3       -0.1218
      2  CA       -14.5850  -12.9630  -13.2280 C.3     3  THR3        0.1862
      3  C        -13.4310  -12.3890  -12.4160 C.2     3  THR3        0.2287
      4  O        -13.5340  -12.1840  -11.2020 O.2     3  THR3       -0.2866
      5  CB       -15.3820  -11.7910  -13.8200 C.3     3  THR3        0.1770
      6  OG1      -14.5760  -11.0390  -14.7060 O.3     3  THR3       -0.2211
      7  CG2      -15.9270  -10.8300  -12.7650 C.3     3  THR3        0.0375
      8  N        -10.2280   -7.5950  -15.3120 N.3     6  GLY6       -0.1225
      9  CA        -9.7050   -6.2190  -15.2810 C.3     6  GLY6        0.1811
     10  C         -8.4430   -6.0860  -14.4280 C.2     6  GLY6        0.2280
     11  O         -8.4780   -5.5080  -13.3370 O.2     6  GLY6       -0.2866
     12  N         -0.0020   -9.1430    1.0430 N.3    35  GLU35      -0.1245
     13  CA        -0.7980   -9.5850   -0.1140 C.3    35  GLU35       0.1567
     14  C         -0.4360  -11.0130   -0.5660 C.2    35  GLU35       0.2260
     15  O         -1.2740  -11.7140   -1.1370 O.2    35  GLU35      -0.2867
     16  CB        -0.7060   -8.5460   -1.2390 C.3    35  GLU35       0.0388
     17  CG        -1.4940   -7.2730   -0.8920 C.3    35  GLU35       0.1160
     18  CD        -3.0200   -7.4660   -0.9690 C.2    35  GLU35       0.3649
     19  OE1       -3.5270   -7.9820   -1.9930 O.co2  35  GLU35      -0.2457
     20  OE2       -3.7130   -7.0440   -0.0190 O.co2  35  GLU35      -0.2457
     21  N         -6.9730  -10.7380   -2.2340 N.3    40  HIS40      -0.1227
     22  CA        -7.4700   -9.5750   -2.9820 C.3    40  HIS40       0.1737
     23  C         -6.9940   -9.5170   -4.4570 C.2    40  HIS40       0.2438
     24  O         -6.0430  -10.2110   -4.8370 O.2    40  HIS40      -0.2733
     25  CB        -7.1640   -8.3020   -2.1770 C.3    40  HIS40       0.0758
     26  CG        -8.3300   -7.8880   -1.3070 C.ar   40  HIS40       0.0818
     27  ND1       -9.1130   -6.7700   -1.4840 N.ar   40  HIS40      -0.2268
     28  CD2       -8.8760   -8.5960   -0.2690 C.ar   40  HIS40       0.1154
     29  CE1      -10.1100   -6.8050   -0.5840 C.ar   40  HIS40       0.1986
     30  NE2      -10.0210   -7.9160    0.1690 N.ar   40  HIS40      -0.2212
     31  N         -7.6650   -8.7180   -5.3160 N.am   41  PRO41      -0.2718
     32  CA        -7.3970   -8.6530   -6.7600 C.3    41  PRO41       0.1535
     33  C         -6.3250   -7.6290   -7.1680 C.2    41  PRO41       0.2598
     34  O         -5.7560   -7.7450   -8.2560 O.2    41  PRO41      -0.2715
     35  CB        -8.7430   -8.2260   -7.3640 C.3    41  PRO41       0.0310
     36  CG        -9.2870   -7.2680   -6.3050 C.3    41  PRO41       0.0237
     37  CD        -8.8900   -7.9780   -5.0150 C.3    41  PRO41       0.0939
     38  N         -6.0700   -6.6270   -6.3160 N.am   42  LEU42      -0.1964
     39  CA        -5.3050   -5.4170   -6.6420 C.3    42  LEU42       0.1728
     40  C         -3.9210   -5.3760   -5.9830 C.2    42  LEU42       0.2616
     41  O         -2.9090   -5.2310   -6.6640 O.2    42  LEU42      -0.2715
     42  CB        -6.2250   -4.2280   -6.2870 C.3    42  LEU42       0.0311
     43  CG        -5.9260   -2.8640   -6.9300 C.3    42  LEU42       0.0022
     44  CD1       -7.1950   -2.0150   -6.9010 C.3    42  LEU42       0.0001
     45  CD2       -4.8630   -2.0690   -6.1730 C.3    42  LEU42       0.0001
     46  N         -3.8770   -5.5660   -4.6630 N.am   43  GLY43      -0.1955
     47  CA        -2.6200   -5.5680   -3.8960 C.3    43  GLY43       0.1869
     48  C         -1.6430   -6.6960   -4.2880 C.2    43  GLY43       0.2309
     49  O         -0.4200   -6.5470   -4.1950 O.2    43  GLY43      -0.2863
     50  N        -12.6210   -4.3990    3.6220 N.3    68  VAL68      -0.1245
     51  CA       -13.7840   -3.6470    3.0930 C.3    68  VAL68       0.1561
     52  C        -13.7800   -3.6560    1.5470 C.2    68  VAL68       0.2260
     53  O        -12.7140   -3.4770    0.9530 O.2    68  VAL68      -0.2867
     54  CB       -13.7710   -2.1800    3.5930 C.3    68  VAL68       0.0252
     55  CG1      -15.0920   -1.4650    3.2830 C.3    68  VAL68       0.0019
     56  CG2      -13.5670   -2.0630    5.1070 C.3    68  VAL68       0.0019
     57  N        -13.9450   -1.9540   -2.0130 N.3    70  GLY70      -0.1225
     58  CA       -13.5980   -0.6410   -2.5780 C.3    70  GLY70       0.1811
     59  C        -12.7510    0.2750   -1.6780 C.2    70  GLY70       0.2280
     60  O        -11.9030    1.0090   -2.1850 O.2    70  GLY70      -0.2866
     61  N        -10.4120   -0.3780    0.7370 N.3    72  GLY72      -0.1210
     62  CA        -9.1460   -0.9200    1.2430 C.3    72  GLY72       0.1956
     63  C         -9.2940   -1.9050    2.4100 C.2    72  GLY72       0.2611
     64  O        -10.4050   -2.2670    2.8060 O.2    72  GLY72      -0.2717
     65  N         -8.1610   -2.3650    2.9530 N.am   73  ILE73      -0.1979
     66  CA        -8.1100   -3.3120    4.0860 C.3    73  ILE73       0.1595
     67  C         -7.0570   -2.9220    5.1340 C.2    73  ILE73       0.2287
     68  O         -6.0990   -2.2130    4.8190 O.2    73  ILE73      -0.2864
     69  CB        -7.9510   -4.7890    3.6380 C.3    73  ILE73       0.0276
     70  CG1       -6.5050   -5.2380    3.3230 C.3    73  ILE73       0.0022
     71  CG2       -8.8790   -5.1590    2.4630 C.3    73  ILE73       0.0022
     72  CD1       -6.3940   -6.7650    3.2790 C.3    73  ILE73       0.0001
     73  N         -3.9980   -0.2570    3.6160 N.3   136  ILE136     -0.1231
     74  CA        -3.7800    0.1720    2.2290 C.3   136  ILE136      0.1692
     75  C         -5.1180    0.3550    1.5050 C.2   136  ILE136      0.2593
     76  O         -6.0560   -0.4090    1.7400 O.2   136  ILE136     -0.2718
     77  CB        -2.8460   -0.8400    1.5050 C.3   136  ILE136      0.0266
     78  CG1       -2.6350   -0.4780    0.0140 C.3   136  ILE136      0.0019
     79  CG2       -3.2970   -2.3060    1.6820 C.3   136  ILE136      0.0020
     80  CD1       -1.4570   -1.2080   -0.6480 C.3   136  ILE136      0.0001
     81  N         -5.1920    1.3310    0.5920 N.am  137  GLY137     -0.1942
     82  CA        -6.3060    1.4950   -0.3500 C.3   137  GLY137      0.2014
     83  C         -7.0450    2.8360   -0.2910 C.2   137  GLY137      0.2638
     84  O         -6.9050    3.6090    0.6550 O.2   137  GLY137     -0.2714
     85  N         -7.8580    3.0770   -1.3260 N.am  138  ASN138     -0.1972
     86  CA        -8.8380    4.1630   -1.4340 C.3   138  ASN138      0.1688
     87  C         -8.2760    5.5580   -1.0530 C.2   138  ASN138      0.2292
     88  O         -7.1470    5.8960   -1.4250 O.2   138  ASN138     -0.2864
     89  CB       -10.0870    3.6930   -0.6580 C.3   138  ASN138      0.1181
     90  CG       -11.3580    4.3950   -1.0910 C.2   138  ASN138      0.2629
     91  OD1      -11.7410    5.4150   -0.5300 O.2   138  ASN138     -0.2716
     92  ND2      -12.0210    3.8820   -2.0970 N.am  138  ASN138     -0.0877
     93  N         -5.4350    4.1450  -11.5440 N.3   166  THR166     -0.1203
     94  CA        -5.7600    3.7250  -10.1690 C.3   166  THR166      0.1994
     95  C         -4.7720    4.3650   -9.1880 C.2   166  THR166      0.2618
     96  O         -3.5650    4.1630   -9.3120 O.2   166  THR166     -0.2717
     97  CB        -5.7400    2.1850  -10.0930 C.3   166  THR166      0.1784
     98  OG1       -6.7540    1.6900  -10.9390 O.3   166  THR166     -0.2211
     99  CG2       -6.0170    1.6180   -8.7030 C.3   166  THR166      0.0376
    100  N         -5.2630    5.1500   -8.2220 N.am  167  ALA167     -0.1965
    101  CA        -4.4310    5.9960   -7.3560 C.3   167  ALA167      0.1728
    102  C         -4.7590    5.7860   -5.8570 C.2   167  ALA167      0.2616
    103  O         -5.8770    6.0860   -5.4210 O.2   167  ALA167     -0.2715
    104  CB        -4.6390    7.4460   -7.8310 C.3   167  ALA167      0.0334
    105  N         -3.8130    5.2400   -5.0780 N.am  168  VAL168     -0.1977
    106  CA        -4.0330    4.7770   -3.6840 C.3   168  VAL168      0.1596
    107  C         -2.8680    5.0890   -2.7280 C.2   168  VAL168      0.2287
    108  O         -1.7480    5.3670   -3.1540 O.2   168  VAL168     -0.2864
    109  CB        -4.3670    3.2670   -3.6320 C.3   168  VAL168      0.0276
    110  CG1       -5.6820    2.9360   -4.3480 C.3   168  VAL168      0.0022
    111  CG2       -3.2550    2.3800   -4.2080 C.3   168  VAL168      0.0022
@<TRIPOS>BOND
     1     8     9    1
     2     9    10    1
     3     6     5    1
     4    10    11    2
     5     5     2    1
     6     5     7    1
     7     2     1    1
     8     2     3    1
     9     3     4    2
    10    93    94    1
    11    98    97    1
    12    94    97    1
    13    94    95    1
    14    97    99    1
    15    96    95    2
    16    95   100   am
    17    34    33    2
    18   100   101    1
    19   104   101    1
    20    35    32    1
    21    35    36    1
    22   101   102    1
    23    33    32    1
    24    33    38   am
    25    43    44    1
    26    43    42    1
    27    43    45    1
    28    32    31    1
    29    41    40    2
    30    39    38    1
    31    39    42    1
    32    39    40    1
    33    36    37    1
    34    40    46   am
    35   102   103    2
    36   102   105   am
    37    31    37    1
    38    31    23   am
    39   105   106    1
    40    24    23    2
    41    46    47    1
    42    23    22    1
    43   110   109    1
    44    48    49    2
    45    48    47    1
    46   111   109    1
    47   106   109    1
    48   106   107    1
    49   108   107    2
    50    22    21    1
    51    22    25    1
    52    58    57    1
    53    58    59    1
    54    60    59    2
    55    25    26    1
    56    92    90   am
    57    19    18   ar
    58    27    26   ar
    59    27    29   ar
    60    86    85    1
    61    86    87    1
    62    86    89    1
    63    88    87    2
    64    85    83   am
    65    26    28   ar
    66    16    17    1
    67    16    13    1
    68    15    14    2
    69    90    89    1
    70    90    91    2
    71    18    17    1
    72    18    20   ar
    73    80    78    1
    74    29    30   ar
    75    14    13    1
    76    82    83    1
    77    82    81    1
    78    83    84    2
    79    28    30   ar
    80    13    12    1
    81    78    77    1
    82    81    75   am
    83    61    62    1
    84    53    52    2
    85    62    63    1
    86    77    79    1
    87    77    74    1
    88    75    76    2
    89    75    74    1
    90    52    51    1
    91    74    73    1
    92    63    64    2
    93    63    65   am
    94    71    69    1
    95    65    66    1
    96    51    54    1
    97    51    50    1
    98    72    70    1
    99    55    54    1
   100    70    69    1
   101    54    56    1
   102    69    66    1
   103    66    67    1
   104    68    67    2
