@<TRIPOS>MOLECULE
tmp/2kmyA00.pdb
 172 168 0 0 0
SMALL
GASTEIGER

@<TRIPOS>ATOM
      1  N         -3.0580    1.4080    7.6000 N.3    33  CYS33      -0.1221
      2  CA        -2.9330    1.8410    6.2190 C.3    33  CYS33       0.1808
      3  C         -3.4930    3.2600    6.1080 C.2    33  CYS33       0.2601
      4  O         -2.8000    4.1790    5.6750 O.2    33  CYS33      -0.2717
      5  CB        -3.6310    0.8760    5.2580 C.3    33  CYS33       0.0970
      6  SG        -2.5670   -0.5830    4.9540 S.3    33  CYS33      -0.0800
      7  N         -4.7560    3.4010    6.5100 N.am   34  HIS34      -0.1961
      8  CA        -5.4600    4.6780    6.4780 C.3    34  HIS34       0.1787
      9  C         -5.0350    5.5360    7.6840 C.2    34  HIS34       0.2620
     10  O         -5.8060    5.7150    8.6250 O.2    34  HIS34      -0.2715
     11  CB        -6.9700    4.4120    6.3920 C.3    34  HIS34       0.0785
     12  CG        -7.4610    3.6710    5.1700 C.ar   34  HIS34       0.0821
     13  ND1       -7.5920    4.2570    3.9770 N.ar   34  HIS34      -0.2267
     14  CD2       -7.8490    2.3630    4.9980 C.ar   34  HIS34       0.1154
     15  CE1       -8.0450    3.3520    3.0960 C.ar   34  HIS34       0.1986
     16  NE2       -8.2200    2.1650    3.6740 N.ar   34  HIS34      -0.2212
     17  N         -3.8060    6.0470    7.6160 N.am   35  HIS35      -0.1973
     18  CA        -3.2370    6.8850    8.6660 C.3    35  HIS35       0.1656
     19  C         -4.0860    8.1580    8.8330 C.2    35  HIS35       0.2291
     20  O         -4.6180    8.6790    7.8550 O.2    35  HIS35      -0.2864
     21  CB        -1.7580    7.1480    8.3460 C.3    35  HIS35       0.0771
     22  CG        -1.4690    8.0680    7.1820 C.ar   35  HIS35       0.0820
     23  ND1       -1.7240    9.3790    7.2200 N.ar   35  HIS35      -0.2267
     24  CD2       -0.9340    7.8180    5.9410 C.ar   35  HIS35       0.1154
     25  CE1       -1.3630    9.9250    6.0490 C.ar   35  HIS35       0.1986
     26  NE2       -0.8680    9.0060    5.2220 N.ar   35  HIS35      -0.2212
     27  N         -5.2520   11.9230    9.2450 N.3    37  VAL37      -0.1231
     28  CA        -4.8430   13.1020    8.5010 C.3    37  VAL37       0.1692
     29  C         -4.8720   14.3190    9.4270 C.2    37  VAL37       0.2592
     30  O         -5.9350   14.7200    9.8990 O.2    37  VAL37      -0.2718
     31  CB        -5.7260   13.2710    7.2630 C.3    37  VAL37       0.0266
     32  CG1       -5.9520   14.7520    6.9490 C.3    37  VAL37       0.0020
     33  CG2       -5.1280   12.5410    6.0590 C.3    37  VAL37       0.0020
     34  N         -3.6910   14.8740    9.6590 N.am   38  ASP38      -0.1974
     35  CA        -3.5680   16.0380   10.5210 C.3    38  ASP38       0.1709
     36  C         -4.3090   15.7760   11.8330 C.2    38  ASP38       0.2293
     37  O         -4.9330   16.6800   12.3880 O.2    38  ASP38      -0.2864
     38  CB        -4.1860   17.2750    9.8670 C.3    38  ASP38       0.1436
     39  CG        -3.6140   17.6350    8.4940 C.2    38  ASP38       0.3671
     40  OD1       -3.6620   16.8320    7.5510 O.co2  38  ASP38      -0.2456
     41  OD2       -3.0930   18.8130    8.4130 O.co2  38  ASP38      -0.2456
     42  N         -9.8630   10.2190    8.1860 N.3    42  SER42      -0.1217
     43  CA        -9.9820   10.4050    6.7490 C.3    42  SER42       0.1889
     44  C        -10.0790    9.0470    6.0520 C.2    42  SER42       0.2288
     45  O         -9.8070    7.9960    6.6280 O.2    42  SER42      -0.2866
     46  CB        -8.7980   11.2020    6.1970 C.3    42  SER42       0.2089
     47  OG        -9.2220   12.3230    5.4270 O.3    42  SER42      -0.2183
     48  N         -9.8490    9.2670    2.1410 N.3    44  ALA44      -0.1231
     49  CA        -9.7710    9.6920    0.7540 C.3    44  ALA44       0.1694
     50  C         -8.7320    8.8410    0.0220 C.2    44  ALA44       0.2592
     51  O         -8.0910    7.9820    0.6260 O.2    44  ALA44      -0.2718
     52  CB        -9.4480   11.1860    0.6950 C.3    44  ALA44       0.0304
     53  N         -8.5970    9.1090   -1.2690 N.am   45  LYS45      -0.1966
     54  CA        -7.6470    8.3780   -2.0900 C.3    45  LYS45       0.1728
     55  C         -6.2320    8.6140   -1.5570 C.2    45  LYS45       0.2616
     56  O         -5.9170    9.7050   -1.0830 O.2    45  LYS45      -0.2715
     57  CB        -7.8180    8.7470   -3.5650 C.3    45  LYS45       0.0311
     58  CG        -8.9340    7.9240   -4.2100 C.3    45  LYS45       0.0038
     59  CD        -9.8540    8.8110   -5.0510 C.3    45  LYS45       0.0206
     60  CE       -10.6890    7.9710   -6.0210 C.3    45  LYS45       0.1093
     61  NZ       -11.4460    8.8460   -6.9440 N.3    45  LYS45      -0.1314
     62  N         -5.4170    7.5740   -1.6520 N.am   46  CYS46      -0.1968
     63  CA        -4.0430    7.6550   -1.1850 C.3    46  CYS46       0.1712
     64  C         -3.3270    8.7420   -1.9880 C.2    46  CYS46       0.2296
     65  O         -2.4290    9.4080   -1.4740 O.2    46  CYS46      -0.2864
     66  CB        -3.3300    6.3050   -1.2900 C.3    46  CYS46       0.0983
     67  SG        -4.0440    4.9770   -0.2520 S.3    46  CYS46      -0.0798
     68  N         -4.7120   11.6130   -3.4740 N.3    48  SER48      -0.1217
     69  CA        -5.6990   12.6580   -3.6880 C.3    48  SER48       0.1889
     70  C         -5.0030   14.0140   -3.8310 C.2    48  SER48       0.2288
     71  O         -4.0030   14.2750   -3.1650 O.2    48  SER48      -0.2866
     72  CB        -6.7140   12.7000   -2.5450 C.3    48  SER48       0.2089
     73  OG        -7.1790   11.3990   -2.1960 O.3    48  SER48      -0.2183
     74  N         -2.2860   15.2860   -1.5350 N.3    51  CYS51      -0.1221
     75  CA        -1.5780   14.2070   -0.8680 C.3    51  CYS51       0.1808
     76  C         -0.6200   13.5670   -1.8740 C.2    51  CYS51       0.2601
     77  O         -0.0210   14.2530   -2.6990 O.2    51  CYS51      -0.2717
     78  CB        -2.5440   13.1830   -0.2690 C.3    51  CYS51       0.0970
     79  SG        -3.9680   14.0390    0.4970 S.3    51  CYS51      -0.0800
     80  N         -0.5000   12.2420   -1.7750 N.am   52  HIS52      -0.1975
     81  CA         0.3670   11.4580   -2.6470 C.3    52  HIS52       0.1656
     82  C         -0.1630   11.5120   -4.0920 C.2    52  HIS52       0.2291
     83  O         -0.4670   10.4740   -4.6780 O.2    52  HIS52      -0.2864
     84  CB         0.4950   10.0390   -2.0740 C.3    52  HIS52       0.0771
     85  CG         0.7190    9.9250   -0.5830 C.ar   52  HIS52       0.0820
     86  ND1        1.9130   10.1250   -0.0170 N.ar   52  HIS52      -0.2267
     87  CD2       -0.1450    9.6250    0.4420 C.ar   52  HIS52       0.1154
     88  CE1        1.7980    9.9550    1.3090 C.ar   52  HIS52       0.1986
     89  NE2        0.5470    9.6450    1.6470 N.ar   52  HIS52      -0.2212
     90  N          7.0400   12.9210    0.2560 N.3    61  GLU61      -0.1231
     91  CA         5.8520   12.5480    1.0060 C.3    61  GLU61       0.1699
     92  C          4.6000   12.7450    0.1490 C.2    61  GLU61       0.2592
     93  O          3.4890   12.4590    0.5920 O.2    61  GLU61      -0.2718
     94  CB         5.7550   13.3430    2.3090 C.3    61  GLU61       0.0402
     95  CG         5.4900   14.8240    2.0310 C.3    61  GLU61       0.1161
     96  CD         6.2430   15.7120    3.0240 C.2    61  GLU61       0.3649
     97  OE1        5.7520   15.9520    4.1360 O.co2  61  GLU61      -0.2457
     98  OE2        7.3780   16.1570    2.6050 O.co2  61  GLU61      -0.2457
     99  N          4.8220   13.2330   -1.0630 N.am   62  LYS62      -0.1980
    100  CA         3.7250   13.4720   -1.9860 C.3    62  LYS62       0.1596
    101  C          3.8190   12.4830   -3.1490 C.2    62  LYS62       0.2287
    102  O          3.1040   12.6160   -4.1410 O.2    62  LYS62      -0.2864
    103  CB         3.7040   14.9380   -2.4250 C.3    62  LYS62       0.0298
    104  CG         2.6380   15.7240   -1.6600 C.3    62  LYS62       0.0038
    105  CD         3.1650   17.0980   -1.2410 C.3    62  LYS62       0.0206
    106  CE         2.7080   18.1820   -2.2190 C.3    62  LYS62       0.1093
    107  NZ         3.6960   19.2830   -2.2710 N.3    62  LYS62      -0.1314
    108  N          6.8120    6.6240   -2.9270 N.3    66  TYR66      -0.1227
    109  CA         7.5030    6.6830   -1.6540 C.3    66  TYR66       0.1736
    110  C          6.6500    6.0360   -0.5730 C.2    66  TYR66       0.2595
    111  O          7.1790    5.7190    0.4910 O.2    66  TYR66      -0.2718
    112  CB         7.8030    8.1390   -1.3080 C.3    66  TYR66       0.0548
    113  CG         8.7670    8.2980   -0.1560 C.ar   66  TYR66      -0.0200
    114  CD1        9.9200    7.5060   -0.0940 C.ar   66  TYR66      -0.0009
    115  CD2        8.5080    9.2370    0.8490 C.ar   66  TYR66      -0.0009
    116  CE1       10.8140    7.6540    0.9730 C.ar   66  TYR66       0.0417
    117  CE2        9.4030    9.3850    1.9160 C.ar   66  TYR66       0.0417
    118  CZ        10.5560    8.5930    1.9780 C.ar   66  TYR66       0.1957
    119  OH        11.4270    8.7370    3.0170 O.3    66  TYR66      -0.2866
    120  N          5.3690    5.8540   -0.8570 N.am   67  VAL67      -0.1980
    121  CA         4.4680    5.2450    0.1050 C.3    67  VAL67       0.1595
    122  C          4.0710    3.8510   -0.3850 C.2    67  VAL67       0.2287
    123  O          2.8960    3.4890   -0.3560 O.2    67  VAL67      -0.2864
    124  CB         3.2640    6.1580    0.3470 C.3    67  VAL67       0.0276
    125  CG1        3.6360    7.3240    1.2650 C.3    67  VAL67       0.0022
    126  CG2        2.6860    6.6640   -0.9760 C.3    67  VAL67       0.0022
    127  N          9.9630    6.1390    8.0120 N.3    74  LEU74      -0.1231
    128  CA         8.8700    7.0030    7.6020 C.3    74  LEU74       0.1693
    129  C          8.0330    7.3750    8.8270 C.2    74  LEU74       0.2592
    130  O          8.4190    7.0860    9.9590 O.2    74  LEU74      -0.2718
    131  CB         8.0610    6.3480    6.4800 C.3    74  LEU74       0.0284
    132  CG         8.8740    5.7110    5.3510 C.3    74  LEU74       0.0019
    133  CD1        8.0720    4.6130    4.6510 C.3    74  LEU74       0.0001
    134  CD2        9.3720    6.7720    4.3680 C.3    74  LEU74       0.0001
    135  N          6.9010    8.0110    8.5600 N.am   75  LYS75      -0.1966
    136  CA         6.0060    8.4260    9.6270 C.3    75  LYS75       0.1728
    137  C          4.9550    7.3380    9.8560 C.2    75  LYS75       0.2616
    138  O          4.4420    7.1890   10.9650 O.2    75  LYS75      -0.2715
    139  CB         5.4110    9.8020    9.3220 C.3    75  LYS75       0.0311
    140  CG         6.5070   10.8040    8.9560 C.3    75  LYS75       0.0038
    141  CD         7.0830   11.4690   10.2080 C.3    75  LYS75       0.0206
    142  CE         8.4130   12.1600    9.8990 C.3    75  LYS75       0.1093
    143  NZ         9.5480   11.2660   10.2220 N.3    75  LYS75      -0.1314
    144  N          4.6640    6.6060    8.7900 N.am   76  HIS76      -0.1959
    145  CA         3.6830    5.5370    8.8620 C.3    76  HIS76       0.1787
    146  C          4.3320    4.2160    8.4440 C.2    76  HIS76       0.2621
    147  O          5.5460    4.1490    8.2570 O.2    76  HIS76      -0.2715
    148  CB         2.4460    5.8780    8.0290 C.3    76  HIS76       0.0785
    149  CG         1.8010    7.1930    8.3980 C.ar   76  HIS76       0.0821
    150  ND1        1.4780    7.5310    9.7010 N.ar   76  HIS76      -0.2267
    151  CD2        1.4240    8.2500    7.6220 C.ar   76  HIS76       0.1154
    152  CE1        0.9310    8.7370    9.6970 C.ar   76  HIS76       0.1986
    153  NE2        0.8980    9.1810    8.4070 N.ar   76  HIS76      -0.2212
    154  N          3.4950    3.1980    8.3100 N.am   77  THR77      -0.1937
    155  CA         3.9720    1.8830    7.9180 C.3    77  THR77       0.2028
    156  C          3.7450    1.6570    6.4220 C.2    77  THR77       0.2643
    157  O          2.6230    1.7870    5.9350 O.2    77  THR77      -0.2714
    158  CB         3.2770    0.8450    8.8020 C.3    77  THR77       0.1808
    159  OG1        4.0820    0.7950    9.9770 O.3    77  THR77      -0.2208
    160  CG2        3.3700   -0.5700    8.2270 C.3    77  THR77       0.0379
    161  N          4.8280    1.3230    5.7360 N.am   78  SER78      -0.1935
    162  CA         4.7610    1.0780    4.3050 C.3    78  SER78       0.2055
    163  C          4.3570   -0.3740    4.0410 C.2    78  SER78       0.2643
    164  O          4.4040   -1.2090    4.9440 O.2    78  SER78      -0.2714
    165  CB         6.0980    1.3880    3.6300 C.3    78  SER78       0.2130
    166  OG         6.9230    2.2230    4.4370 O.3    78  SER78      -0.2179
    167  N          3.9690   -0.6310    2.8010 N.am   79  CYS79      -0.1967
    168  CA         3.5580   -1.9670    2.4070 C.3    79  CYS79       0.1712
    169  C          4.7990   -2.8600    2.3660 C.2    79  CYS79       0.2296
    170  O          4.9190   -3.8000    3.1510 O.2    79  CYS79      -0.2864
    171  CB         2.8160   -1.9590    1.0690 C.3    79  CYS79       0.0983
    172  SG         1.7680   -0.4870    0.7800 S.3    79  CYS79      -0.0798
@<TRIPOS>BOND
     1    61    60    1
     2    60    59    1
     3    59    58    1
     4    83    82    2
     5    58    57    1
     6   102   101    2
     7    82    81    1
     8    70    69    1
     9    70    71    2
    10    69    68    1
    11    69    72    1
    12    57    54    1
    13   101   100    1
    14   108   109    1
    15    77    76    2
    16    81    84    1
    17    81    80    1
    18    72    73    1
    19   103   100    1
    20   103   104    1
    21   107   106    1
    22   106   105    1
    23    54    55    1
    24    54    53    1
    25    84    85    1
    26    64    65    2
    27    64    63    1
    28   100    99    1
    29    76    80   am
    30    76    75    1
    31   104   105    1
    32   109   112    1
    33   109   110    1
    34    62    55   am
    35    62    63    1
    36    55    56    2
    37    74    75    1
    38   112   113    1
    39    66    63    1
    40    66    67    1
    41    53    50   am
    42    99    92   am
    43   126   124    1
    44    75    78    1
    45   120   110   am
    46   120   121    1
    47    85    86   ar
    48    85    87   ar
    49   110   111    2
    50   122   123    2
    51   122   121    1
    52    78    79    1
    53   113   114   ar
    54   113   115   ar
    55   114   116   ar
    56    86    88   ar
    57    50    51    2
    58    50    49    1
    59   121   124    1
    60    92    93    2
    61    92    91    1
    62    90    91    1
    63   124   125    1
    64    87    89   ar
    65    52    49    1
    66    49    48    1
    67   172   171    1
    68   115   117   ar
    69   116   118   ar
    70    91    94    1
    71   171   168    1
    72    88    89   ar
    73   117   118   ar
    74   118   119    1
    75    95    94    1
    76    95    96    1
    77   169   168    1
    78   169   170    2
    79   168   167    1
    80    98    96   ar
    81   167   163   am
    82    96    97   ar
    83    15    16   ar
    84    15    13   ar
    85   165   162    1
    86   165   166    1
    87    16    14   ar
    88    13    12   ar
    89   163   162    1
    90   163   164    2
    91   162   161    1
    92   134   132    1
    93   133   132    1
    94     6     5    1
    95    14    12   ar
    96    12    11    1
    97    26    24   ar
    98    26    25   ar
    99     5     2    1
   100   132   131    1
   101    47    46    1
   102     4     3    2
   103   161   156   am
   104   157   156    2
   105    24    22   ar
   106    25    23   ar
   107    44    45    2
   108    44    43    1
   109    33    31    1
   110     3     2    1
   111     3     7   am
   112    46    43    1
   113     2     1    1
   114    11     8    1
   115   156   155    1
   116     8     7    1
   117     8     9    1
   118   131   128    1
   119    43    42    1
   120    32    31    1
   121    22    23   ar
   122    22    21    1
   123    31    28    1
   124    40    39   ar
   125   128   127    1
   126   128   129    1
   127    17     9   am
   128    17    18    1
   129   151   149   ar
   130   151   153   ar
   131     9    10    2
   132    20    19    2
   133   155   154    1
   134   155   158    1
   135   148   149    1
   136   148   145    1
   137   160   158    1
   138   147   146    2
   139   154   146   am
   140    21    18    1
   141   149   150   ar
   142   153   152   ar
   143    41    39   ar
   144   146   145    1
   145    39    38    1
   146    28    27    1
   147    28    29    1
   148   135   129   am
   149   135   136    1
   150    18    19    1
   151   144   145    1
   152   144   137   am
   153   158   159    1
   154   129   130    2
   155   140   139    1
   156   140   141    1
   157   139   136    1
   158    29    34   am
   159    29    30    2
   160   136   137    1
   161    34    35    1
   162   152   150   ar
   163   137   138    2
   164    38    35    1
   165   142   141    1
   166   142   143    1
   167    35    36    1
   168    36    37    2
