@<TRIPOS>MOLECULE
tmp/2ko7A00.pdb
 116 113 0 0 0
SMALL
GASTEIGER

@<TRIPOS>ATOM
      1  N        -16.9900   -2.1650    9.6920 N.3    37  TYR37      -0.1241
      2  CA       -16.2190   -2.6920    8.5720 C.3    37  TYR37       0.1605
      3  C        -15.5640   -1.5620    7.7830 C.2    37  TYR37       0.2264
      4  O        -16.2200   -0.5910    7.4050 O.2    37  TYR37      -0.2867
      5  CB       -17.1180   -3.5180    7.6510 C.3    37  TYR37       0.0534
      6  CG       -18.1540   -2.6950    6.9180 C.ar   37  TYR37      -0.0201
      7  CD1      -19.3130   -2.2730    7.5570 C.ar   37  TYR37      -0.0009
      8  CD2      -17.9720   -2.3400    5.5870 C.ar   37  TYR37      -0.0009
      9  CE1      -20.2620   -1.5220    6.8910 C.ar   37  TYR37       0.0417
     10  CE2      -18.9150   -1.5870    4.9140 C.ar   37  TYR37       0.0417
     11  CZ       -20.0590   -1.1810    5.5700 C.ar   37  TYR37       0.1957
     12  OH       -21.0010   -0.4320    4.9030 O.3    37  TYR37      -0.2866
     13  N        -11.4390    2.3560    0.5210 N.3    47  PHE47      -0.1227
     14  CA       -12.4230    2.7580   -0.4770 C.3    47  PHE47       0.1736
     15  C        -13.8420    2.5560    0.0460 C.2    47  PHE47       0.2595
     16  O        -14.7930    2.4560   -0.7300 O.2    47  PHE47      -0.2718
     17  CB       -12.2260    1.9610   -1.7690 C.3    47  PHE47       0.0547
     18  CG       -12.6740    0.5310   -1.6660 C.ar   47  PHE47      -0.0202
     19  CD1      -11.9880   -0.3670   -0.8650 C.ar   47  PHE47      -0.0042
     20  CD2      -13.7810    0.0860   -2.3700 C.ar   47  PHE47      -0.0042
     21  CE1      -12.3980   -1.6840   -0.7690 C.ar   47  PHE47      -0.0003
     22  CE2      -14.1960   -1.2290   -2.2780 C.ar   47  PHE47      -0.0003
     23  CZ       -13.5040   -2.1150   -1.4750 C.ar   47  PHE47      -0.0000
     24  N        -13.9770    2.4960    1.3660 N.am   48  ASP48      -0.1974
     25  CA       -15.2790    2.3070    1.9950 C.3    48  ASP48       0.1709
     26  C        -15.1700    2.4090    3.5130 C.2    48  ASP48       0.2293
     27  O        -14.3570    1.7250    4.1340 O.2    48  ASP48      -0.2864
     28  CB       -15.8650    0.9490    1.6040 C.3    48  ASP48       0.1436
     29  CG       -17.3660    0.8870    1.8060 C.2    48  ASP48       0.3671
     30  OD1      -17.8030    0.7600    2.9690 O.co2  48  ASP48      -0.2456
     31  OD2      -18.1040    0.9640    0.8010 O.co2  48  ASP48      -0.2456
     32  N        -26.4970  -11.0840    5.0770 N.3    65  MET65      -0.1230
     33  CA       -26.3340  -10.8310    3.6500 C.3    65  MET65       0.1702
     34  C        -24.9300  -10.3180    3.3450 C.2    65  MET65       0.2592
     35  O        -24.7600   -9.2160    2.8250 O.2    65  MET65      -0.2718
     36  CB       -27.3750   -9.8180    3.1680 C.3    65  MET65       0.0401
     37  CG       -28.7730  -10.4000    3.0370 C.3    65  MET65       0.0596
     38  SD       -29.9240   -9.2680    2.2340 S.3    65  MET65      -0.1393
     39  CE       -31.1680   -9.0880    3.5100 C.3    65  MET65       0.0692
     40  N        -23.9260  -11.1260    3.6730 N.am   66  VAL66      -0.1966
     41  CA       -22.5370  -10.7540    3.4330 C.3    66  VAL66       0.1727
     42  C        -21.7810  -11.8770    2.7310 C.2    66  VAL66       0.2616
     43  O        -22.3460  -12.9300    2.4380 O.2    66  VAL66      -0.2715
     44  CB       -21.8140  -10.4070    4.7480 C.3    66  VAL66       0.0290
     45  CG1      -22.5960   -9.3610    5.5280 C.3    66  VAL66       0.0023
     46  CG2      -21.6010  -11.6600    5.5850 C.3    66  VAL66       0.0023
     47  N        -20.5000  -11.6440    2.4640 N.am   67  ILE67      -0.1977
     48  CA       -19.6660  -12.6360    1.7980 C.3    67  ILE67       0.1596
     49  C        -18.9930  -13.5570    2.8100 C.2    67  ILE67       0.2287
     50  O        -18.9280  -13.2490    4.0000 O.2    67  ILE67      -0.2864
     51  CB       -18.5840  -11.9700    0.9290 C.3    67  ILE67       0.0276
     52  CG1      -17.5500  -11.2680    1.8120 C.3    67  ILE67       0.0022
     53  CG2      -19.2170  -10.9830   -0.0410 C.3    67  ILE67       0.0022
     54  CD1      -16.5110  -10.4950    1.0290 C.3    67  ILE67       0.0001
     55  N        -16.7160  -12.0630    5.2130 N.3    70  TRP70      -0.1241
     56  CA       -17.4010  -11.2890    6.2410 C.3    70  TRP70       0.1605
     57  C        -17.8800  -12.1910    7.3730 C.2    70  TRP70       0.2264
     58  O        -17.5720  -11.9540    8.5410 O.2    70  TRP70      -0.2867
     59  CB       -18.5870  -10.5350    5.6370 C.3    70  TRP70       0.0550
     60  CG       -18.2270   -9.1750    5.1220 C.ar   70  TRP70       0.0003
     61  CD1      -17.2330   -8.8700    4.2360 C.ar   70  TRP70       0.0946
     62  CD2      -18.8550   -7.9350    5.4650 C.ar   70  TRP70       0.0152
     63  NE1      -17.2070   -7.5160    4.0070 N.ar   70  TRP70      -0.2442
     64  CE2      -18.1920   -6.9190    4.7480 C.ar   70  TRP70       0.0810
     65  CE3      -19.9150   -7.5840    6.3050 C.ar   70  TRP70       0.0012
     66  CZ2      -18.5550   -5.5790    4.8490 C.ar   70  TRP70       0.0191
     67  CZ3      -20.2730   -6.2530    6.4050 C.ar   70  TRP70       0.0001
     68  CH2      -19.5960   -5.2640    5.6800 C.ar   70  TRP70       0.0015
     69  N        -15.0470  -14.0280   -1.5970 N.3    92  GLY92      -0.1210
     70  CA       -15.7790  -12.7770   -1.6560 C.3    92  GLY92       0.1956
     71  C        -16.3240  -12.4880   -3.0410 C.2    92  GLY92       0.2611
     72  O        -17.3280  -13.0690   -3.4530 O.2    92  GLY92      -0.2717
     73  N        -15.6620  -11.5890   -3.7600 N.am   93  TYR93      -0.1976
     74  CA       -16.0890  -11.2220   -5.1050 C.3    93  TYR93       0.1639
     75  C        -16.0210  -12.4220   -6.0440 C.2    93  TYR93       0.2290
     76  O        -17.0450  -12.9080   -6.5230 O.2    93  TYR93      -0.2864
     77  CB       -15.2180  -10.0870   -5.6470 C.3    93  TYR93       0.0560
     78  CG       -15.7250   -8.7090   -5.2850 C.ar   93  TYR93      -0.0198
     79  CD1      -16.3670   -8.4790   -4.0750 C.ar   93  TYR93      -0.0009
     80  CD2      -15.5610   -7.6370   -6.1540 C.ar   93  TYR93      -0.0009
     81  CE1      -16.8330   -7.2220   -3.7410 C.ar   93  TYR93       0.0417
     82  CE2      -16.0220   -6.3760   -5.8280 C.ar   93  TYR93       0.0417
     83  CZ       -16.6580   -6.1740   -4.6210 C.ar   93  TYR93       0.1957
     84  OH       -17.1190   -4.9200   -4.2910 O.3    93  TYR93      -0.2866
     85  N        -15.1780   -6.9220  -10.9870 N.3    98  ALA98      -0.1245
     86  CA       -16.0690   -5.8180  -10.6510 C.3    98  ALA98       0.1562
     87  C        -15.4950   -4.4860  -11.1250 C.2    98  ALA98       0.2260
     88  O        -15.8250   -3.4310  -10.5850 O.2    98  ALA98      -0.2867
     89  CB       -16.3220   -5.7820   -9.1520 C.3    98  ALA98       0.0290
     90  N         -9.9370   -4.1410  -11.2520 N.3   102  ILE102     -0.1245
     91  CA       -10.2910   -5.2350  -10.3570 C.3   102  ILE102      0.1561
     92  C        -10.3180   -6.5660  -11.1000 C.2   102  ILE102      0.2260
     93  O        -11.3390   -6.9780  -11.6500 O.2   102  ILE102     -0.2867
     94  CB       -11.6620   -5.0010   -9.6960 C.3   102  ILE102      0.0252
     95  CG1      -11.6470   -3.7040   -8.8850 C.3   102  ILE102      0.0019
     96  CG2      -12.0320   -6.1820   -8.8110 C.3   102  ILE102      0.0019
     97  CD1      -12.9620   -3.4050   -8.1990 C.3   102  ILE102      0.0001
     98  N         -9.4380   -8.2370   -1.5560 N.3   108  LEU108     -0.1245
     99  CA        -9.8420   -7.0530   -0.8040 C.3   108  LEU108      0.1561
    100  C         -9.8350   -7.3320    0.6950 C.2   108  LEU108      0.2260
    101  O        -10.3490   -8.3540    1.1500 O.2   108  LEU108     -0.2867
    102  CB       -11.2350   -6.5970   -1.2430 C.3   108  LEU108      0.0270
    103  CG       -11.4610   -6.4860   -2.7510 C.3   108  LEU108      0.0019
    104  CD1      -12.7490   -7.1880   -3.1500 C.3   108  LEU108      0.0001
    105  CD2      -11.4920   -5.0260   -3.1800 C.3   108  LEU108      0.0001
    106  N        -10.7590   -6.0680    4.6800 N.3   110  PHE110     -0.1241
    107  CA       -11.6990   -5.2490    5.4360 C.3   110  PHE110      0.1605
    108  C        -11.3650   -5.2740    6.9250 C.2   110  PHE110      0.2264
    109  O        -11.0980   -6.3310    7.4940 O.2   110  PHE110     -0.2867
    110  CB       -13.1300   -5.7420    5.2140 C.3   110  PHE110      0.0534
    111  CG       -13.7850   -5.1530    3.9980 C.ar  110  PHE110     -0.0203
    112  CD1      -13.3300   -5.4690    2.7280 C.ar  110  PHE110     -0.0042
    113  CD2      -14.8560   -4.2820    4.1250 C.ar  110  PHE110     -0.0042
    114  CE1      -13.9310   -4.9290    1.6070 C.ar  110  PHE110     -0.0003
    115  CE2      -15.4610   -3.7400    3.0070 C.ar  110  PHE110     -0.0003
    116  CZ       -14.9970   -4.0620    1.7470 C.ar  110  PHE110     -0.0000
@<TRIPOS>BOND
     1    93    92    2
     2    90    91    1
     3    87    86    1
     4    87    88    2
     5    92    91    1
     6    85    86    1
     7    86    89    1
     8    91    94    1
     9    94    95    1
    10    94    96    1
    11    95    97    1
    12    76    75    2
    13    80    82   ar
    14    80    78   ar
    15    75    74    1
    16    82    83   ar
    17    77    78    1
    18    77    74    1
    19    78    79   ar
    20    74    73    1
    21    83    84    1
    22    83    81   ar
    23    79    81   ar
    24    73    71   am
    25    72    71    2
    26   105   103    1
    27   104   103    1
    28    71    70    1
    29   103   102    1
    30    20    22   ar
    31    20    18   ar
    32    22    23   ar
    33    17    18    1
    34    17    14    1
    35    18    19   ar
    36    70    69    1
    37    98    99    1
    38    23    21   ar
    39   102    99    1
    40    19    21   ar
    41    99   100    1
    42    16    15    2
    43    14    15    1
    44    14    13    1
    45    53    51    1
    46    15    24   am
    47   100   101    2
    48    31    29   ar
    49    51    48    1
    50    51    52    1
    51    54    52    1
    52    24    25    1
    53    28    29    1
    54    28    25    1
    55   114   116   ar
    56   114   112   ar
    57   116   115   ar
    58    48    47    1
    59    48    49    1
    60    29    30   ar
    61    25    26    1
    62    38    37    1
    63    38    39    1
    64    43    42    2
    65    47    42   am
    66   112   111   ar
    67    42    41    1
    68    49    50    2
    69    35    34    2
    70   115   113   ar
    71    37    36    1
    72    36    33    1
    73    34    33    1
    74    34    40   am
    75    41    40    1
    76    41    44    1
    77    26    27    2
    78    33    32    1
    79   111   113   ar
    80   111   110    1
    81    63    61   ar
    82    63    64   ar
    83    61    60   ar
    84   106   107    1
    85    64    66   ar
    86    64    62   ar
    87    44    45    1
    88    44    46    1
    89    66    68   ar
    90    12    11    1
    91    10    11   ar
    92    10     8   ar
    93    60    62   ar
    94    60    59    1
    95    55    56    1
    96   110   107    1
    97   107   108    1
    98    62    65   ar
    99    11     9   ar
   100     8     6   ar
   101    59    56    1
   102    68    67   ar
   103    56    57    1
   104    65    67   ar
   105     9     7   ar
   106     6     7   ar
   107     6     5    1
   108   108   109    2
   109    57    58    2
   110     4     3    2
   111     5     2    1
   112     3     2    1
   113     2     1    1
