@<TRIPOS>MOLECULE
tmp/2koqA00.pdb
 144 134 0 0 0
SMALL
GASTEIGER

@<TRIPOS>ATOM
      1  N         -1.9890   -3.9980   -3.1650 N.3    11  LEU11      -0.1245
      2  CA        -0.7890   -3.3340   -2.7050 C.3    11  LEU11       0.1561
      3  C          0.4150   -4.0810   -3.2650 C.2    11  LEU11       0.2260
      4  O          1.2950   -3.5000   -3.9010 O.2    11  LEU11      -0.2867
      5  CB        -0.7420   -3.3650   -1.1680 C.3    11  LEU11       0.0270
      6  CG        -1.9000   -2.6850   -0.4300 C.3    11  LEU11       0.0019
      7  CD1       -1.8640   -3.0240    1.0500 C.3    11  LEU11       0.0001
      8  CD2       -1.8340   -1.1810   -0.6170 C.3    11  LEU11       0.0001
      9  N          5.5850   -1.5470    4.6080 N.3    32  PHE32      -0.1227
     10  CA         6.1020   -1.1480    3.2740 C.3    32  PHE32       0.1736
     11  C          7.5540   -0.6520    3.2860 C.2    32  PHE32       0.2596
     12  O          8.4930   -1.4280    3.0670 O.2    32  PHE32      -0.2718
     13  CB         5.2260   -0.0650    2.6590 C.3    32  PHE32       0.0547
     14  CG         3.9000   -0.5140    2.1750 C.ar   32  PHE32      -0.0202
     15  CD1        3.7960   -1.2280    1.0060 C.ar   32  PHE32      -0.0042
     16  CD2        2.7540   -0.1920    2.8640 C.ar   32  PHE32      -0.0042
     17  CE1        2.5680   -1.6170    0.5280 C.ar   32  PHE32      -0.0003
     18  CE2        1.5230   -0.5830    2.3930 C.ar   32  PHE32      -0.0003
     19  CZ         1.4320   -1.2930    1.2210 C.ar   32  PHE32      -0.0000
     20  N          7.7440    0.6100    3.5390 N.am   33  THR33      -0.1939
     21  CA         9.0550    1.2020    3.6170 C.3    33  THR33       0.2028
     22  C          9.8120    0.8990    4.9260 C.2    33  THR33       0.2642
     23  O         10.5440    1.7430    5.4350 O.2    33  THR33      -0.2714
     24  CB         8.9010    2.6890    3.4410 C.3    33  THR33       0.1808
     25  OG1        7.4790    3.0040    3.4700 O.3    33  THR33      -0.2208
     26  CG2        9.4940    3.0990    2.1300 C.3    33  THR33       0.0379
     27  N          9.7230   -0.3220    5.4080 N.am   34  ASP34      -0.1971
     28  CA        10.4210   -0.6910    6.6290 C.3    34  ASP34       0.1709
     29  C         10.8100   -2.1660    6.6550 C.2    34  ASP34       0.2293
     30  O         11.9900   -2.4870    6.5660 O.2    34  ASP34      -0.2864
     31  CB         9.6070   -0.3040    7.8620 C.3    34  ASP34       0.1436
     32  CG        10.2370   -0.7680    9.1530 C.2    34  ASP34       0.3671
     33  OD1       11.1590   -0.1030    9.6550 O.co2  34  ASP34      -0.2456
     34  OD2        9.8120   -1.8090    9.6860 O.co2  34  ASP34      -0.2456
     35  N         11.4660    2.1760   -0.7320 N.3    39  ASP39      -0.1225
     36  CA        12.2140    3.3770   -1.0440 C.3    39  ASP39       0.1805
     37  C         11.2710    4.4690   -0.6720 C.2    39  ASP39       0.2598
     38  O         10.0720    4.2190   -0.5590 O.2    39  ASP39      -0.2718
     39  CB        12.4900    3.5250   -2.5370 C.3    39  ASP39       0.1424
     40  CG        13.4430    4.6470   -2.8850 C.2    39  ASP39       0.3668
     41  OD1       12.9650    5.7790   -3.0740 O.co2  39  ASP39      -0.2456
     42  OD2       14.6620    4.4290   -2.9760 O.co2  39  ASP39      -0.2456
     43  N         11.7360    5.6310   -0.6120 N.am   40  SER40      -0.1938
     44  CA        10.9570    6.7370   -0.1300 C.3    40  SER40       0.2055
     45  C         10.1860    7.3290   -1.2900 C.2    40  SER40       0.2642
     46  O          8.9960    7.6400   -1.1920 O.2    40  SER40      -0.2714
     47  CB        11.8860    7.7880    0.4950 C.3    40  SER40       0.2130
     48  OG        11.1200    8.8860    1.0980 O.3    40  SER40      -0.2179
     49  N         10.8420    7.3940   -2.4070 N.am   41  LEU41      -0.1977
     50  CA        10.2980    8.0530   -3.5550 C.3    41  LEU41       0.1596
     51  C          9.4470    7.0860   -4.3510 C.2    41  LEU41       0.2287
     52  O          8.4380    7.4720   -4.9490 O.2    41  LEU41      -0.2864
     53  CB        11.4180    8.6720   -4.3940 C.3    41  LEU41       0.0297
     54  CG        12.4250    9.5500   -3.6110 C.3    41  LEU41       0.0022
     55  CD1       13.3980   10.2360   -4.5510 C.3    41  LEU41       0.0001
     56  CD2       11.7210   10.5660   -2.6930 C.3    41  LEU41       0.0001
     57  N          7.7730    4.8620   -2.9320 N.3    43  MET43      -0.1230
     58  CA         6.6160    4.7080   -2.0820 C.3    43  MET43       0.1702
     59  C          5.4320    5.5020   -2.6140 C.2    43  MET43       0.2592
     60  O          4.3210    4.9990   -2.7170 O.2    43  MET43      -0.2718
     61  CB         6.9430    5.1880   -0.6870 C.3    43  MET43       0.0401
     62  CG         5.7750    5.0690    0.2380 C.3    43  MET43       0.0596
     63  SD         5.0340    3.4280    0.1610 S.3    43  MET43      -0.1393
     64  CE         6.4450    2.4370    0.5490 C.3    43  MET43       0.0692
     65  N          5.7030    6.7230   -3.0210 N.am   44  VAL44      -0.1980
     66  CA         4.6760    7.6340   -3.4880 C.3    44  VAL44       0.1595
     67  C          4.0390    7.1320   -4.7950 C.2    44  VAL44       0.2287
     68  O          2.8760    7.4260   -5.0920 O.2    44  VAL44      -0.2864
     69  CB         5.2390    9.0730   -3.6440 C.3    44  VAL44       0.0276
     70  CG1        4.1480   10.0720   -4.0150 C.3    44  VAL44       0.0022
     71  CG2        5.9310    9.4980   -2.3580 C.3    44  VAL44       0.0022
     72  N          3.5340    3.9300   -5.3480 N.3    46  VAL46      -0.1231
     73  CA         2.6360    2.8890   -4.8660 C.3    46  VAL46       0.1692
     74  C          1.3230    3.5390   -4.4730 C.2    46  VAL46       0.2591
     75  O          0.2600    3.0890   -4.8680 O.2    46  VAL46      -0.2718
     76  CB         3.2480    2.1430   -3.6360 C.3    46  VAL46       0.0266
     77  CG1        2.3150    1.0500   -3.1230 C.3    46  VAL46       0.0020
     78  CG2        4.6100    1.5510   -3.9870 C.3    46  VAL46       0.0020
     79  N          1.4300    4.6200   -3.7260 N.am   47  VAL47      -0.1980
     80  CA         0.2780    5.3890   -3.2700 C.3    47  VAL47       0.1595
     81  C         -0.5510    5.8880   -4.4650 C.2    47  VAL47       0.2287
     82  O         -1.7400    5.5950   -4.5650 O.2    47  VAL47      -0.2864
     83  CB         0.7270    6.6090   -2.4400 C.3    47  VAL47       0.0276
     84  CG1       -0.4810    7.3200   -1.8450 C.3    47  VAL47       0.0022
     85  CG2        1.7010    6.1940   -1.3500 C.3    47  VAL47       0.0022
     86  N         -2.1650    3.2110   -6.2570 N.3    50  ALA50      -0.1245
     87  CA        -3.1710    2.5850   -5.4100 C.3    50  ALA50       0.1562
     88  C         -4.5260    3.2500   -5.5800 C.2    50  ALA50       0.2260
     89  O         -5.5610    2.5840   -5.5480 O.2    50  ALA50      -0.2867
     90  CB        -2.7500    2.6100   -3.9450 C.3    50  ALA50       0.0290
     91  N         -6.3710    7.9850   -2.1010 N.3    58  ILE58      -0.1245
     92  CA        -5.4870    7.9860   -0.9590 C.3    58  ILE58       0.1561
     93  C         -4.3590    8.9490   -1.2500 C.2    58  ILE58       0.2260
     94  O         -3.4850    8.6540   -2.0680 O.2    58  ILE58      -0.2867
     95  CB        -4.8610    6.5910   -0.6920 C.3    58  ILE58       0.0252
     96  CG1       -5.9230    5.4970   -0.7720 C.3    58  ILE58       0.0019
     97  CG2       -4.2030    6.5770    0.7010 C.3    58  ILE58       0.0019
     98  CD1       -5.3630    4.0980   -0.6690 C.3    58  ILE58       0.0001
     99  N         -0.9310   11.0820   -0.6760 N.3    60  ASP60      -0.1239
    100  CA         0.3900   10.9130   -0.0440 C.3    60  ASP60       0.1674
    101  C          0.4580   11.6060    1.3210 C.2    60  ASP60       0.2266
    102  O          1.1450   11.1610    2.2250 O.2    60  ASP60      -0.2867
    103  CB         1.4970   11.4150   -0.9800 C.3    60  ASP60       0.1410
    104  CG         2.8340   11.6080   -0.2890 C.2    60  ASP60       0.3668
    105  OD1        3.4200   10.6460    0.2120 O.co2  60  ASP60      -0.2456
    106  OD2        3.2960   12.7630   -0.2090 O.co2  60  ASP60      -0.2456
    107  N         -1.2920    9.1340    3.6270 N.3    63  VAL63      -0.1231
    108  CA        -0.7590    7.7840    3.4000 C.3    63  VAL63       0.1692
    109  C          0.4450    7.4920    4.3060 C.2    63  VAL63       0.2591
    110  O          0.7240    6.3480    4.6420 O.2    63  VAL63      -0.2718
    111  CB        -0.3700    7.5450    1.9150 C.3    63  VAL63       0.0266
    112  CG1        1.0150    8.0740    1.5770 C.3    63  VAL63       0.0020
    113  CG2       -0.5000    6.0970    1.5470 C.3    63  VAL63       0.0020
    114  N          1.0970    8.5550    4.7540 N.am   64  LYS64      -0.1980
    115  CA         2.2710    8.4610    5.5860 C.3    64  LYS64       0.1596
    116  C          1.9380    7.8660    6.9600 C.2    64  LYS64       0.2287
    117  O          2.8220    7.4680    7.7050 O.2    64  LYS64      -0.2864
    118  CB         2.9230    9.8370    5.7380 C.3    64  LYS64       0.0298
    119  CG         3.2000   10.5350    4.4090 C.3    64  LYS64       0.0038
    120  CD         3.9120   11.8560    4.6110 C.3    64  LYS64       0.0206
    121  CE         3.9700   12.6850    3.3240 C.3    64  LYS64       0.1093
    122  NZ         4.6520   12.0020    2.2040 N.3    64  LYS64      -0.1314
    123  N         -0.1760    5.2740    7.2020 N.3    66  LEU66      -0.1231
    124  CA        -0.5440    3.8840    6.9910 C.3    66  LEU66       0.1693
    125  C          0.5680    2.9680    7.4560 C.2    66  LEU66       0.2591
    126  O          0.3270    2.0590    8.2230 O.2    66  LEU66      -0.2718
    127  CB        -0.9200    3.5980    5.5270 C.3    66  LEU66       0.0284
    128  CG        -2.1550    4.3340    4.9880 C.3    66  LEU66       0.0019
    129  CD1       -2.4110    3.9560    3.5470 C.3    66  LEU66       0.0001
    130  CD2       -3.3730    4.0160    5.8230 C.3    66  LEU66       0.0001
    131  N          1.7820    3.2270    6.9720 N.am   67  LYS67      -0.1980
    132  CA         3.0510    2.5310    7.3320 C.3    67  LYS67       0.1596
    133  C          3.1330    1.0080    7.0890 C.2    67  LYS67       0.2287
    134  O          4.2170    0.4760    6.8580 O.2    67  LYS67      -0.2864
    135  CB         3.7200    3.0150    8.6730 C.3    67  LYS67       0.0298
    136  CG         2.8370    3.1130    9.9330 C.3    67  LYS67       0.0038
    137  CD         2.3430    1.7650   10.4560 C.3    67  LYS67       0.0206
    138  CE         1.4480    1.9720   11.6710 C.3    67  LYS67       0.1093
    139  NZ         0.8870    0.7110   12.1990 N.3    67  LYS67      -0.1314
    140  N         -2.6420    0.0010    5.6780 N.3    72  ALA72      -0.1245
    141  CA        -3.0370    0.5370    4.3740 C.3    72  ALA72       0.1562
    142  C         -4.4080   -0.0110    4.0340 C.2    72  ALA72       0.2260
    143  O         -5.3400    0.7430    3.7370 O.2    72  ALA72      -0.2867
    144  CB        -2.0330    0.1590    3.2960 C.3    72  ALA72       0.0290
@<TRIPOS>BOND
     1    86    87    1
     2    88    89    2
     3    88    87    1
     4    87    90    1
     5    72    73    1
     6    68    67    2
     7    52    51    2
     8    75    74    2
     9    73    74    1
    10    73    76    1
    11    67    66    1
    12    82    81    2
    13    55    54    1
    14    74    79   am
    15    81    80    1
    16    53    54    1
    17    53    50    1
    18    51    50    1
    19    70    69    1
    20    78    76    1
    21     4     3    2
    22    79    80    1
    23    69    66    1
    24    69    71    1
    25    76    77    1
    26    54    56    1
    27    50    49    1
    28    66    65    1
    29    80    83    1
    30     3     2    1
    31     1     2    1
    32    41    40   ar
    33    65    59   am
    34    42    40   ar
    35    57    58    1
    36    40    39    1
    37    60    59    2
    38     2     5    1
    39    59    58    1
    40    39    36    1
    41    83    84    1
    42    83    85    1
    43    49    45   am
    44    91    92    1
    45    58    61    1
    46    94    93    2
    47    45    46    2
    48    45    44    1
    49    93    92    1
    50     5     6    1
    51    36    35    1
    52    36    37    1
    53   103   104    1
    54   103   100    1
    55    92    95    1
    56    96    95    1
    57    96    98    1
    58    95    97    1
    59    61    62    1
    60    99   100    1
    61    37    43   am
    62    37    38    2
    63     8     6    1
    64    43    44    1
    65     6     7    1
    66   104   106   ar
    67   104   105   ar
    68    44    47    1
    69   100   101    1
    70    63    62    1
    71    63    64    1
    72    47    48    1
    73    17    15   ar
    74    17    19   ar
    75    15    14   ar
    76    19    18   ar
    77   101   102    2
    78   113   111    1
    79   112   111    1
    80   111   108    1
    81    26    24    1
    82    14    13    1
    83    14    16   ar
    84   122   121    1
    85    18    16   ar
    86    13    10    1
    87    12    11    2
    88    10    11    1
    89    10     9    1
    90    11    20   am
    91   144   141    1
    92   121   120    1
    93   108   107    1
    94   108   109    1
    95    24    25    1
    96    24    21    1
    97    20    21    1
    98   129   128    1
    99    21    22    1
   100   143   142    2
   101   142   141    1
   102   109   110    2
   103   109   114   am
   104   141   140    1
   105   119   120    1
   106   119   118    1
   107   114   115    1
   108    22    27   am
   109    22    23    2
   110   128   127    1
   111   128   130    1
   112    27    28    1
   113   127   124    1
   114   115   118    1
   115   115   116    1
   116    30    29    2
   117    28    29    1
   118    28    31    1
   119   134   133    2
   120   116   117    2
   121   131   132    1
   122   131   125   am
   123   124   123    1
   124   124   125    1
   125   133   132    1
   126   132   135    1
   127   125   126    2
   128    31    32    1
   129   135   136    1
   130    32    33   ar
   131    32    34   ar
   132   136   137    1
   133   137   138    1
   134   138   139    1
