@<TRIPOS>MOLECULE
tmp/2kotA00.pdb
 78 74 0 0 0
SMALL
GASTEIGER

@<TRIPOS>ATOM
      1  N          6.9020   17.0150    7.3190 N.3     1  MET1       -0.1230
      2  CA         7.6320   15.7490    6.9870 C.3     1  MET1        0.1702
      3  C          7.7580   14.8040    8.2140 C.2     1  MET1        0.2592
      4  O          8.7950   14.1530    8.4030 O.2     1  MET1       -0.2718
      5  CB         9.0250   16.0710    6.3810 C.3     1  MET1        0.0401
      6  CG         9.9260   16.9490    7.2570 C.3     1  MET1        0.0596
      7  SD        11.6200   17.0690    6.6390 S.3     1  MET1       -0.1393
      8  CE        12.3970   18.0430    7.9260 C.3     1  MET1        0.0692
      9  N          6.6840   14.7180    9.0320 N.am    2  ALA2       -0.1966
     10  CA         6.6550   13.8530   10.2260 C.3     2  ALA2        0.1728
     11  C          5.2950   13.1500   10.3450 C.2     2  ALA2        0.2616
     12  O          4.2500   13.8120   10.3780 O.2     2  ALA2       -0.2715
     13  CB         6.9620   14.6690   11.4800 C.3     2  ALA2        0.0334
     14  N          5.3190   11.8030   10.4190 N.am    3  ALA3       -0.1977
     15  CA         4.0920   10.9930   10.5050 C.3     3  ALA3        0.1597
     16  C          3.5920   10.8680   11.9570 C.2     3  ALA3        0.2287
     17  O          4.2790   10.2930   12.8080 O.2     3  ALA3       -0.2864
     18  CB         4.3310    9.6170    9.8820 C.3     3  ALA3        0.0319
     19  N          5.9840    3.7270    8.5580 N.3    17  VAL17      -0.1231
     20  CA         6.8670    4.8780    8.2820 C.3    17  VAL17       0.1692
     21  C          7.7110    5.2340    9.5250 C.2    17  VAL17       0.2592
     22  O          8.9320    5.2920    9.4410 O.2    17  VAL17      -0.2718
     23  CB         6.0490    6.1380    7.8010 C.3    17  VAL17       0.0266
     24  CG1        6.9480    7.3630    7.5480 C.3    17  VAL17       0.0020
     25  CG2        5.2360    5.8110    6.5420 C.3    17  VAL17       0.0020
     26  N          7.0520    5.4330   10.6790 N.am   18  THR18      -0.1953
     27  CA         7.7370    5.8230   11.9380 C.3    18  THR18       0.1897
     28  C          8.7100    4.7550   12.5030 C.2    18  THR18       0.2313
     29  O          9.6550    5.1120   13.2120 O.2    18  THR18      -0.2863
     30  CB         6.7070    6.1860   13.0460 C.3    18  THR18       0.1794
     31  OG1        5.8270    5.0770   13.2850 O.3    18  THR18      -0.2208
     32  CG2        5.8790    7.4130   12.6670 C.3    18  THR18       0.0378
     33  N         11.7930    4.5140    9.2040 N.3    21  PHE21      -0.1227
     34  CA        12.3680    5.8000    8.7250 C.3    21  PHE21       0.1736
     35  C         13.3910    6.4110    9.7110 C.2    21  PHE21       0.2596
     36  O         14.1140    7.3430    9.3420 O.2    21  PHE21      -0.2718
     37  CB        11.2700    6.8220    8.3680 C.3    21  PHE21       0.0547
     38  CG        10.5970    6.5830    7.0210 C.ar   21  PHE21      -0.0202
     39  CD1       10.0910    5.3280    6.6630 C.ar   21  PHE21      -0.0042
     40  CD2       10.4690    7.6250    6.1070 C.ar   21  PHE21      -0.0042
     41  CE1        9.4850    5.1320    5.4400 C.ar   21  PHE21      -0.0003
     42  CE2        9.8610    7.4240    4.8850 C.ar   21  PHE21      -0.0003
     43  CZ         9.3710    6.1810    4.5510 C.ar   21  PHE21      -0.0000
     44  N         13.4470    5.9000   10.9640 N.am   22  THR22      -0.1953
     45  CA        14.4360    6.3590   11.9600 C.3    22  THR22       0.1897
     46  C         15.8650    5.9450   11.5210 C.2    22  THR22       0.2313
     47  O         16.8390    6.6340   11.8420 O.2    22  THR22      -0.2863
     48  CB        14.1350    5.7770   13.3790 C.3    22  THR22       0.1794
     49  OG1       12.7300    5.8840   13.6710 O.3    22  THR22      -0.2208
     50  CG2       14.9350    6.4880   14.4760 C.3    22  THR22       0.0378
     51  N         16.6760    7.5310    7.3820 N.3    25  ARG25      -0.1245
     52  CA        17.1530    8.9340    7.3160 C.3    25  ARG25       0.1563
     53  C         18.7040    9.0260    7.3170 C.2    25  ARG25       0.2260
     54  O         19.2540   10.0520    6.9070 O.2    25  ARG25      -0.2867
     55  CB        16.5700    9.7830    8.4760 C.3    25  ARG25       0.0307
     56  CG        16.9040    9.2700    9.8840 C.3    25  ARG25       0.0489
     57  CD        16.4590   10.2400   10.9820 C.3    25  ARG25       0.2205
     58  NE        16.7960    9.7500   12.3340 N.pl3  25  ARG25      -0.0865
     59  CZ        16.6100   10.4420   13.4800 C.cat  25  ARG25       0.5346
     60  NH1       16.0830   11.6750   13.4770 N.pl3  25  ARG25       0.1354
     61  NH2       16.9560    9.8870   14.6450 N.pl3  25  ARG25       0.1354
     62  N         15.1530   12.0620    3.2390 N.3    30  LYS30      -0.1231
     63  CA        14.4680   11.6780    4.4890 C.3    30  LYS30       0.1693
     64  C         13.2960   10.7210    4.2100 C.2    30  LYS30       0.2592
     65  O         13.0850    9.7640    4.9610 O.2    30  LYS30      -0.2718
     66  CB        13.9560   12.9320    5.2330 C.3    30  LYS30       0.0285
     67  CG        15.0530   13.8860    5.7240 C.3    30  LYS30       0.0035
     68  CD        15.8100   13.3410    6.9420 C.3    30  LYS30       0.0206
     69  CE        16.8430   14.3390    7.4750 C.3    30  LYS30       0.1093
     70  NZ        18.0050   14.5150    6.5530 N.3    30  LYS30      -0.1314
     71  N         12.5450   10.9860    3.1230 N.am   31  ASP31      -0.1974
     72  CA        11.3870   10.1590    2.7370 C.3    31  ASP31       0.1709
     73  C         11.8000    8.8680    1.9850 C.2    31  ASP31       0.2293
     74  O         10.9840    7.9480    1.8590 O.2    31  ASP31      -0.2864
     75  CB        10.4120   10.9750    1.8670 C.3    31  ASP31       0.1436
     76  CG         9.8070   12.1620    2.6100 C.2    31  ASP31       0.3671
     77  OD1        9.1640   11.9420    3.6610 O.co2  31  ASP31      -0.2456
     78  OD2        9.9800   13.3070    2.1430 O.co2  31  ASP31      -0.2456
@<TRIPOS>BOND
     1    74    73    2
     2    75    76    1
     3    75    72    1
     4    73    72    1
     5    78    76   ar
     6    76    77   ar
     7    72    71    1
     8    71    64   am
     9    62    63    1
    10    64    63    1
    11    64    65    2
    12    63    66    1
    13    43    42   ar
    14    43    41   ar
    15    42    40   ar
    16    66    67    1
    17    41    39   ar
    18    67    68    1
    19    40    38   ar
    20     5     2    1
    21     5     6    1
    22    25    23    1
    23    70    69    1
    24     7     6    1
    25     7     8    1
    26    39    38   ar
    27    54    53    2
    28    68    69    1
    29     2     1    1
    30     2     3    1
    31    38    37    1
    32    52    53    1
    33    52    51    1
    34    52    55    1
    35    24    23    1
    36    23    20    1
    37     3     4    2
    38     3     9   am
    39    20    19    1
    40    20    21    1
    41    37    34    1
    42    55    56    1
    43    34    33    1
    44    34    35    1
    45     9    10    1
    46    36    35    2
    47    22    21    2
    48    21    26   am
    49    35    44   am
    50    18    15    1
    51    56    57    1
    52    10    11    1
    53    10    13    1
    54    11    12    2
    55    11    14   am
    56    14    15    1
    57    15    16    1
    58    26    27    1
    59    44    45    1
    60    57    58    1
    61    46    47    2
    62    46    45    1
    63    27    28    1
    64    27    30    1
    65    16    17    2
    66    45    48    1
    67    58    59    2
    68    28    29    2
    69    32    30    1
    70    30    31    1
    71    48    49    1
    72    48    50    1
    73    60    59    1
    74    59    61    1
