@<TRIPOS>MOLECULE
tmp/2kp8B00.pdb
 84 81 0 0 0
SMALL
GASTEIGER

@<TRIPOS>ATOM
      1  N         30.9070   52.9140   29.7420 N.3     1  THR1       -0.1203
      2  CA        30.3490   54.0620   30.4790 C.3     1  THR1        0.1994
      3  C         29.3170   54.8290   29.6190 C.2     1  THR1        0.2619
      4  O         28.4470   54.1620   29.0560 O.2     1  THR1       -0.2717
      5  CB        31.4720   54.9030   31.1010 C.3     1  THR1        0.1784
      6  OG1       32.3180   55.4520   30.1130 O.3     1  THR1       -0.2211
      7  CG2       32.3220   54.1680   32.1230 C.3     1  THR1        0.0376
      8  N         29.3320   56.1770   29.5530 N.am    2  SER2       -0.1937
      9  CA        28.3130   57.0740   28.9800 C.3     2  SER2        0.2055
     10  C         27.5870   56.5680   27.7100 C.2     2  SER2        0.2643
     11  O         26.3760   56.3290   27.7390 O.2     2  SER2       -0.2714
     12  CB        28.8840   58.5110   28.8780 C.3     2  SER2        0.2130
     13  OG        27.9460   59.4580   28.3960 O.3     2  SER2       -0.2179
     14  N         28.3350   56.3230   26.6230 N.am    3  LEU3       -0.1963
     15  CA        27.8160   55.8430   25.3350 C.3     3  LEU3        0.1728
     16  C         27.1430   54.4630   25.4540 C.2     3  LEU3        0.2616
     17  O         26.1010   54.2210   24.8460 O.2     3  LEU3       -0.2715
     18  CB        28.9850   55.7900   24.3230 C.3     3  LEU3        0.0311
     19  CG        28.6420   55.3290   22.8850 C.3     3  LEU3        0.0022
     20  CD1       27.7190   56.3220   22.1620 C.3     3  LEU3        0.0001
     21  CD2       29.9230   55.0960   22.0690 C.3     3  LEU3        0.0001
     22  N         27.7150   53.5740   26.2730 N.am    4  ILE4       -0.1977
     23  CA        27.2620   52.2000   26.4730 C.3     4  ILE4        0.1596
     24  C         25.8660   52.1820   27.1220 C.2     4  ILE4        0.2287
     25  O         25.0340   51.3690   26.7290 O.2     4  ILE4       -0.2864
     26  CB        28.3030   51.4150   27.3260 C.3     4  ILE4        0.0276
     27  CG1       29.7660   51.5900   26.8410 C.3     4  ILE4        0.0022
     28  CG2       27.9610   49.9220   27.4740 C.3     4  ILE4        0.0022
     29  CD1       30.0040   51.2570   25.3620 C.3     4  ILE4        0.0001
     30  N         37.0250   51.8930   33.6020 N.3    58  VAL58      -0.1231
     31  CA        37.0150   53.1780   32.9090 C.3    58  VAL58       0.1692
     32  C         37.0850   54.3380   33.9230 C.2    58  VAL58       0.2592
     33  O         37.9090   55.2400   33.7760 O.2    58  VAL58      -0.2718
     34  CB        35.7270   53.2810   32.0450 C.3    58  VAL58       0.0266
     35  CG1       35.7650   54.4960   31.1040 C.3    58  VAL58       0.0020
     36  CG2       35.4250   52.0270   31.1990 C.3    58  VAL58       0.0020
     37  N         36.2650   54.3040   34.9820 N.am   59  TRP59      -0.1976
     38  CA        36.3510   55.2660   36.0780 C.3    59  TRP59       0.1640
     39  C         37.5490   54.9600   36.9860 C.2    59  TRP59       0.2290
     40  O         38.1420   55.8930   37.5190 O.2    59  TRP59      -0.2864
     41  CB        35.0300   55.3200   36.8690 C.3    59  TRP59       0.0576
     42  CG        34.0770   56.3310   36.3070 C.ar   59  TRP59       0.0006
     43  CD1       33.1930   56.1310   35.3020 C.ar   59  TRP59       0.0946
     44  CD2       33.9760   57.7420   36.6550 C.ar   59  TRP59       0.0152
     45  NE1       32.5800   57.3310   34.9800 N.ar   59  TRP59      -0.2442
     46  CE2       32.9990   58.3500   35.8100 C.ar   59  TRP59       0.0810
     47  CE3       34.6360   58.5790   37.5860 C.ar   59  TRP59       0.0012
     48  CZ2       32.6780   59.7140   35.9040 C.ar   59  TRP59       0.0191
     49  CZ3       34.3360   59.9540   37.6750 C.ar   59  TRP59       0.0001
     50  CH2       33.3570   60.5200   36.8360 C.ar   59  TRP59       0.0015
     51  N         40.7160   54.0980   35.8220 N.3    61  ILE61      -0.1231
     52  CA        41.8100   54.8970   35.2630 C.3    61  ILE61       0.1692
     53  C         41.6180   56.4170   35.4620 C.2    61  ILE61       0.2591
     54  O         42.6020   57.1060   35.7280 O.2    61  ILE61      -0.2718
     55  CB        42.0960   54.5260   33.7840 C.3    61  ILE61       0.0266
     56  CG1       40.8940   54.7050   32.8290 C.3    61  ILE61       0.0019
     57  CG2       42.6730   53.0990   33.6890 C.3    61  ILE61       0.0020
     58  CD1       41.2500   54.5050   31.3520 C.3    61  ILE61       0.0001
     59  N         40.3780   56.9360   35.4200 N.am   62  LYS62      -0.1980
     60  CA        40.0880   58.3540   35.6730 C.3    62  LYS62       0.1596
     61  C         40.2950   58.7550   37.1490 C.2    62  LYS62       0.2287
     62  O         40.5900   59.9200   37.4200 O.2    62  LYS62      -0.2864
     63  CB        38.6490   58.7180   35.2540 C.3    62  LYS62       0.0298
     64  CG        38.4250   58.7250   33.7280 C.3    62  LYS62       0.0038
     65  CD        37.1930   59.5390   33.2780 C.3    62  LYS62       0.0206
     66  CE        35.8660   59.1280   33.9360 C.3    62  LYS62       0.1093
     67  NZ        35.4770   57.7620   33.5580 N.3    62  LYS62      -0.1314
     68  N         44.6770   58.1280   37.5140 N.3    65  GLN65      -0.1245
     69  CA        45.4170   59.2600   36.9470 C.3    65  GLN65       0.1566
     70  C         45.5300   60.4530   37.9150 C.2    65  GLN65       0.2260
     71  O         46.5740   61.1010   37.9460 O.2    65  GLN65      -0.2867
     72  CB        44.8360   59.6560   35.5700 C.3    65  GLN65       0.0367
     73  CG        43.3800   60.1620   35.5470 C.3    65  GLN65       0.0905
     74  CD        43.2030   61.6630   35.7720 C.2    65  GLN65       0.2608
     75  OE1       44.0070   62.4690   35.3220 O.2    65  GLN65      -0.2717
     76  NE2       42.1550   62.0510   36.4850 N.am   65  GLN65      -0.0878
     77  N         48.8920   62.0290   39.4490 N.3    69  LEU69      -0.1245
     78  CA        49.0280   63.4960   39.4520 C.3    69  LEU69       0.1561
     79  C         49.3670   64.1230   40.8220 C.2    69  LEU69       0.2260
     80  O         49.6960   65.3060   40.8800 O.2    69  LEU69      -0.2867
     81  CB        47.7430   64.1640   38.9020 C.3    69  LEU69       0.0270
     82  CG        47.6220   64.1730   37.3650 C.3    69  LEU69       0.0019
     83  CD1       46.1760   64.4410   36.9240 C.3    69  LEU69       0.0001
     84  CD2       48.5710   65.1910   36.7090 C.3    69  LEU69       0.0001
@<TRIPOS>BOND
     1    21    19    1
     2    20    19    1
     3    19    18    1
     4    18    15    1
     5    17    16    2
     6    15    16    1
     7    15    14    1
     8    29    27    1
     9    16    22   am
    10    22    23    1
    11    23    24    1
    12    23    26    1
    13    14    10   am
    14    25    24    2
    15    27    26    1
    16    26    28    1
    17    10    11    2
    18    10     9    1
    19    13    12    1
    20    12     9    1
    21     9     8    1
    22     4     3    2
    23     8     3   am
    24     3     2    1
    25     1     2    1
    26     6     5    1
    27     2     5    1
    28     5     7    1
    29    35    34    1
    30    36    34    1
    31    58    56    1
    32    34    31    1
    33    56    55    1
    34    31    30    1
    35    31    32    1
    36    65    64    1
    37    65    66    1
    38    67    66    1
    39    57    55    1
    40    64    63    1
    41    33    32    2
    42    55    52    1
    43    32    37   am
    44    45    43   ar
    45    45    46   ar
    46    37    38    1
    47    63    60    1
    48    52    53    1
    49    52    51    1
    50    43    42   ar
    51    75    74    2
    52    59    53   am
    53    59    60    1
    54    53    54    2
    55    73    72    1
    56    73    74    1
    57    72    69    1
    58    60    61    1
    59    74    76   am
    60    46    48   ar
    61    46    44   ar
    62    48    50   ar
    63    38    41    1
    64    38    39    1
    65    42    44   ar
    66    42    41    1
    67    44    47   ar
    68    84    82    1
    69    50    49   ar
    70    83    82    1
    71    69    68    1
    72    69    70    1
    73    39    40    2
    74    61    62    2
    75    82    81    1
    76    47    49   ar
    77    70    71    2
    78    81    78    1
    79    77    78    1
    80    78    79    1
    81    79    80    2
