@<TRIPOS>MOLECULE
tmp/2kr2A00.pdb
 111 111 0 0 0
SMALL
GASTEIGER

@<TRIPOS>ATOM
      1  N        -16.2220   -2.3520    7.7860 N.3    44  TYR44      -0.1241
      2  CA       -17.5650   -2.0380    7.2420 C.3    44  TYR44       0.1605
      3  C        -17.7280   -2.6560    5.8360 C.2    44  TYR44       0.2264
      4  O        -17.6720   -1.9710    4.8070 O.2    44  TYR44      -0.2867
      5  CB       -17.7840   -0.5140    7.1990 C.3    44  TYR44       0.0534
      6  CG       -18.0120    0.1230    8.5770 C.ar   44  TYR44      -0.0201
      7  CD1      -19.2900    0.1700    9.1460 C.ar   44  TYR44      -0.0009
      8  CD2      -16.9540    0.6730    9.3120 C.ar   44  TYR44      -0.0009
      9  CE1      -19.5000    0.7410   10.3910 C.ar   44  TYR44       0.0417
     10  CE2      -17.1680    1.2440   10.5580 C.ar   44  TYR44       0.0417
     11  CZ       -18.4390    1.2740   11.0880 C.ar   44  TYR44       0.1957
     12  OH       -18.6490    1.8410   12.3250 O.3    44  TYR44      -0.2866
     13  N        -10.2800   -2.3450    5.4770 N.3    64  GLU64      -0.1231
     14  CA       -10.2200   -0.8440    5.4440 C.3    64  GLU64       0.1699
     15  C        -10.8350   -0.2330    6.7340 C.2    64  GLU64       0.2592
     16  O        -11.8740   -0.7050    7.2040 O.2    64  GLU64      -0.2718
     17  CB       -11.0090   -0.2810    4.2410 C.3    64  GLU64       0.0402
     18  CG       -12.4320   -0.8500    4.0610 C.3    64  GLU64       0.1161
     19  CD       -13.3290    0.0810    3.2700 C.2    64  GLU64       0.3649
     20  OE1      -13.0690    0.2780    2.0670 O.co2  64  GLU64      -0.2457
     21  OE2      -14.2960    0.6140    3.8560 O.co2  64  GLU64      -0.2457
     22  N        -10.2270    0.8540    7.2730 N.am   65  ARG65      -0.1966
     23  CA       -10.7390    1.4960    8.5160 C.3    65  ARG65       0.1729
     24  C        -11.5770    2.7800    8.2420 C.2    65  ARG65       0.2616
     25  O        -12.8080    2.6970    8.2370 O.2    65  ARG65      -0.2715
     26  CB        -9.5990    1.7320    9.5720 C.3    65  ARG65       0.0348
     27  CG        -8.2440    2.2440    9.0150 C.3    65  ARG65       0.0492
     28  CD        -7.0540    1.9860    9.9810 C.3    65  ARG65       0.2205
     29  NE        -5.9250    2.8650    9.6820 N.pl3  65  ARG65      -0.0865
     30  CZ        -4.6420    2.5200    9.7980 C.cat  65  ARG65       0.5346
     31  NH1       -4.2890    1.3020   10.1900 N.pl3  65  ARG65       0.1354
     32  NH2       -3.7050    3.4010    9.4970 N.pl3  65  ARG65       0.1354
     33  N        -10.9390    3.9480    8.0160 N.am   66  TYR66      -0.1960
     34  CA       -11.6910    5.2010    7.7320 C.3    66  TYR66       0.1771
     35  C        -10.8800    6.2180    6.9000 C.2    66  TYR66       0.2619
     36  O         -9.6560    6.1020    6.7480 O.2    66  TYR66      -0.2715
     37  CB       -12.1820    5.8690    9.0390 C.3    66  TYR66       0.0574
     38  CG       -13.7110    5.8290    9.2340 C.ar   66  TYR66      -0.0198
     39  CD1      -14.5580    6.5550    8.3870 C.ar   66  TYR66      -0.0009
     40  CD2      -14.3080    5.0680   10.2500 C.ar   66  TYR66      -0.0009
     41  CE1      -15.9360    6.5230    8.5460 C.ar   66  TYR66       0.0417
     42  CE2      -15.6860    5.0390   10.4060 C.ar   66  TYR66       0.0417
     43  CZ       -16.4890    5.7660    9.5540 C.ar   66  TYR66       0.1957
     44  OH       -17.8560    5.7350    9.7120 O.3    66  TYR66      -0.2866
     45  N        -11.5950    7.2310    6.3610 N.am   67  ASN67      -0.1972
     46  CA       -10.9830    8.2870    5.5150 C.3    67  ASN67       0.1688
     47  C        -11.3960    9.7230    5.9310 C.2    67  ASN67       0.2292
     48  O        -12.4250    9.9350    6.5890 O.2    67  ASN67      -0.2864
     49  CB       -11.3630    8.0760    4.0300 C.3    67  ASN67       0.1181
     50  CG       -10.4440    7.1130    3.2760 C.2    67  ASN67       0.2629
     51  OD1       -9.3290    6.8200    3.7110 O.2    67  ASN67      -0.2716
     52  ND2      -10.9130    6.6270    2.1330 N.am   67  ASN67      -0.0877
     53  N        -14.7410   -1.4590   -2.4510 N.3    92  VAL92      -0.1231
     54  CA       -15.9120   -2.1600   -1.8390 C.3    92  VAL92       0.1692
     55  C        -17.2270   -1.9460   -2.6540 C.2    92  VAL92       0.2592
     56  O        -17.6850   -2.8680   -3.3350 O.2    92  VAL92      -0.2718
     57  CB       -16.1670   -1.8590   -0.2750 C.3    92  VAL92       0.0266
     58  CG1      -15.4380   -2.8850    0.6170 C.3    92  VAL92       0.0020
     59  CG2      -15.7850   -0.4230    0.2120 C.3    92  VAL92       0.0020
     60  N        -17.8200   -0.7340   -2.5730 N.am   93  TYR93      -0.1962
     61  CA       -19.0720   -0.4130   -3.2950 C.3    93  TYR93       0.1771
     62  C        -18.9650    0.9220   -4.0730 C.2    93  TYR93       0.2619
     63  O        -19.6310    1.9090   -3.7430 O.2    93  TYR93      -0.2715
     64  CB       -20.2980   -0.3810   -2.3240 C.3    93  TYR93       0.0574
     65  CG       -19.9750    0.0180   -0.8690 C.ar   93  TYR93      -0.0198
     66  CD1      -19.6760    1.3420   -0.5320 C.ar   93  TYR93      -0.0009
     67  CD2      -19.9620   -0.9300    0.1640 C.ar   93  TYR93      -0.0009
     68  CE1      -19.3780    1.7020    0.7700 C.ar   93  TYR93       0.0417
     69  CE2      -19.6610   -0.5660    1.4660 C.ar   93  TYR93       0.0417
     70  CZ       -19.3710    0.7460    1.7610 C.ar   93  TYR93       0.1957
     71  OH       -19.0730    1.1030    3.0550 O.3    93  TYR93      -0.2866
     72  N        -18.1070    0.9290   -5.1160 N.am   94  PHE94      -0.1974
     73  CA       -17.8880    2.1090   -5.9730 C.3    94  PHE94       0.1639
     74  C        -17.6450    1.6740   -7.4260 C.2    94  PHE94       0.2290
     75  O        -16.5480    1.2210   -7.7750 O.2    94  PHE94      -0.2864
     76  CB       -16.6780    2.9400   -5.4860 C.3    94  PHE94       0.0560
     77  CG       -16.9150    3.7400   -4.2040 C.ar   94  PHE94      -0.0200
     78  CD1      -17.4840    5.0140   -4.2500 C.ar   94  PHE94      -0.0042
     79  CD2      -16.5630    3.2220   -2.9550 C.ar   94  PHE94      -0.0042
     80  CE1      -17.6930    5.7430   -3.0880 C.ar   94  PHE94      -0.0003
     81  CE2      -16.7720    3.9480   -1.7950 C.ar   94  PHE94      -0.0003
     82  CZ       -17.3360    5.2100   -1.8610 C.ar   94  PHE94      -0.0000
     83  N        -15.0920   11.9750   -3.2270 N.3   162  TYR162     -0.1227
     84  CA       -15.6910   11.7390   -1.8920 C.3   162  TYR162      0.1736
     85  C        -14.6800   11.1000   -0.9040 C.2   162  TYR162      0.2595
     86  O        -14.5240   11.5810    0.2220 O.2   162  TYR162     -0.2718
     87  CB       -16.9420   10.8470   -2.0280 C.3   162  TYR162      0.0548
     88  CG       -18.0100   11.0770   -0.9450 C.ar  162  TYR162     -0.0200
     89  CD1      -18.9970   12.0580   -1.1000 C.ar  162  TYR162     -0.0009
     90  CD2      -18.0310   10.3190    0.2330 C.ar  162  TYR162     -0.0009
     91  CE1      -19.9580   12.2700   -0.1240 C.ar  162  TYR162      0.0417
     92  CE2      -18.9930   10.5330    1.2070 C.ar  162  TYR162      0.0417
     93  CZ       -19.9510   11.5060    1.0230 C.ar  162  TYR162      0.1957
     94  OH       -20.9060   11.7170    1.9910 O.3   162  TYR162     -0.2866
     95  N        -13.9980   10.0140   -1.3420 N.am  163  ASP163     -0.1974
     96  CA       -12.9770    9.3020   -0.5260 C.3   163  ASP163      0.1709
     97  C        -11.5330    9.6740   -0.9700 C.2   163  ASP163      0.2293
     98  O        -11.3460   10.4760   -1.8960 O.2   163  ASP163     -0.2864
     99  CB       -13.1800    7.7770   -0.6420 C.3   163  ASP163      0.1436
    100  CG       -14.1230    7.2120    0.4160 C.2   163  ASP163      0.3671
    101  OD1      -15.3450    7.4490    0.3060 O.co2 163  ASP163     -0.2456
    102  OD2      -13.6390    6.5330    1.3450 O.co2 163  ASP163     -0.2456
    103  N         -9.0560    4.6710    0.3160 N.3   166  LYS166     -0.1245
    104  CA       -10.0940    3.6140    0.5350 C.3   166  LYS166      0.1561
    105  C         -9.4610    2.3660    1.2290 C.2   166  LYS166      0.2260
    106  O         -9.3870    2.3430    2.4620 O.2   166  LYS166     -0.2867
    107  CB       -10.8780    3.2950   -0.7720 C.3   166  LYS166      0.0271
    108  CG       -12.1050    2.3590   -0.6090 C.3   166  LYS166      0.0035
    109  CD       -13.2300    2.6350   -1.6440 C.3   166  LYS166      0.0206
    110  CE       -12.7330    2.6630   -3.1080 C.3   166  LYS166      0.1093
    111  NZ       -12.2120    4.0030   -3.5010 N.3   166  LYS166     -0.1314
@<TRIPOS>BOND
     1    75    74    2
     2    74    73    1
     3    73    76    1
     4    73    72    1
     5    76    77    1
     6    72    62   am
     7    78    77   ar
     8    78    80   ar
     9    77    79   ar
    10    62    63    2
    11    62    61    1
    12   111   110    1
    13    56    55    2
    14    61    60    1
    15    61    64    1
    16    83    84    1
    17   110   109    1
    18    80    82   ar
    19    79    81   ar
    20    55    60   am
    21    55    54    1
    22    53    54    1
    23    64    65    1
    24    87    84    1
    25    87    88    1
    26    98    97    2
    27    84    85    1
    28    82    81   ar
    29    54    57    1
    30   109   108    1
    31    95    85   am
    32    95    96    1
    33    89    88   ar
    34    89    91   ar
    35    97    96    1
    36    88    90   ar
    37    85    86    2
    38    65    66   ar
    39    65    67   ar
    40   107   108    1
    41   107   104    1
    42    99    96    1
    43    99   100    1
    44    66    68   ar
    45    57    59    1
    46    57    58    1
    47    91    93   ar
    48    67    69   ar
    49    90    92   ar
    50   101   100   ar
    51   103   104    1
    52   100   102   ar
    53   104   105    1
    54    68    70   ar
    55    93    92   ar
    56    93    94    1
    57   105   106    2
    58    69    70   ar
    59    70    71    1
    60    20    19   ar
    61    52    50   am
    62    19    21   ar
    63    19    18    1
    64    50    51    2
    65    50    49    1
    66    49    46    1
    67    18    17    1
    68    17    14    1
    69     4     3    2
    70    14    13    1
    71    14    15    1
    72    46    47    1
    73    46    45    1
    74     3     2    1
    75    47    48    2
    76    45    35   am
    77    15    16    2
    78    15    22   am
    79    36    35    2
    80    35    34    1
    81     5     2    1
    82     5     6    1
    83     2     1    1
    84    22    23    1
    85    34    33    1
    86    34    37    1
    87    33    24   am
    88    25    24    2
    89    24    23    1
    90    39    41   ar
    91    39    38   ar
    92    23    26    1
    93    41    43   ar
    94     6     7   ar
    95     6     8   ar
    96    27    26    1
    97    27    28    1
    98    37    38    1
    99     7     9   ar
   100    38    40   ar
   101     8    10   ar
   102    32    30    1
   103    43    44    1
   104    43    42   ar
   105    29    30    2
   106    29    28    1
   107    30    31    1
   108    40    42   ar
   109     9    11   ar
   110    10    11   ar
   111    11    12    1
