@<TRIPOS>MOLECULE
tmp/2krbA00.pdb
 164 158 0 0 0
SMALL
GASTEIGER

@<TRIPOS>ATOM
      1  N         38.4210  -11.8260  -14.5020 N.3     9  VAL9       -0.1245
      2  CA        38.8370  -13.1010  -13.8790 C.3     9  VAL9        0.1561
      3  C         39.9050  -13.8260  -14.7270 C.2     9  VAL9        0.2260
      4  O         39.5890  -14.7130  -15.5250 O.2     9  VAL9       -0.2867
      5  CB        37.6100  -13.9390  -13.4350 C.3     9  VAL9        0.0252
      6  CG1       36.6300  -14.2740  -14.5660 C.3     9  VAL9        0.0019
      7  CG2       38.0370  -15.2380  -12.7450 C.3     9  VAL9        0.0019
      8  N         47.0460  -23.4490   -7.4210 N.3    16  ARG16      -0.1245
      9  CA        46.1100  -22.3250   -7.2360 C.3    16  ARG16       0.1563
     10  C         44.9380  -22.3100   -8.2360 C.2    16  ARG16       0.2260
     11  O         43.8490  -21.8660   -7.8730 O.2    16  ARG16      -0.2867
     12  CB        46.9190  -21.0120   -7.3010 C.3    16  ARG16       0.0307
     13  CG        46.0540  -19.7710   -6.9960 C.3    16  ARG16       0.0489
     14  CD        46.6340  -18.8750   -5.9060 C.3    16  ARG16       0.2205
     15  NE        45.5990  -17.9470   -5.4240 N.pl3  16  ARG16      -0.0865
     16  CZ        45.7170  -17.0530   -4.4530 C.cat  16  ARG16       0.5346
     17  NH1       46.8720  -16.7730   -3.8970 N.pl3  16  ARG16       0.1354
     18  NH2       44.6560  -16.4230   -4.0050 N.pl3  16  ARG16       0.1354
     19  N         41.6190  -23.5090   -6.6500 N.3    19  LYS19      -0.1231
     20  CA        41.1360  -22.4330   -5.7690 C.3    19  LYS19       0.1693
     21  C         40.2140  -21.4900   -6.5340 C.2    19  LYS19       0.2591
     22  O         39.1730  -21.1480   -5.9950 O.2    19  LYS19      -0.2718
     23  CB        42.3000  -21.6740   -5.0740 C.3    19  LYS19       0.0285
     24  CG        42.3570  -21.8780   -3.5480 C.3    19  LYS19       0.0035
     25  CD        42.6450  -23.3350   -3.1450 C.3    19  LYS19       0.0206
     26  CE        43.2370  -23.4090   -1.7310 C.3    19  LYS19       0.1093
     27  NZ        44.7010  -23.2150   -1.7470 N.3    19  LYS19      -0.1314
     28  N         40.5420  -21.1410   -7.7820 N.am   20  LEU20      -0.1980
     29  CA        39.7400  -20.2790   -8.6530 C.3    20  LEU20       0.1596
     30  C         38.2510  -20.6870   -8.6760 C.2    20  LEU20       0.2287
     31  O         37.3840  -19.8810   -8.3530 O.2    20  LEU20      -0.2864
     32  CB        40.3660  -20.2360  -10.0670 C.3    20  LEU20       0.0297
     33  CG        40.3390  -18.8610  -10.7670 C.3    20  LEU20       0.0022
     34  CD1       40.7140  -19.0620  -12.2410 C.3    20  LEU20       0.0001
     35  CD2       38.9840  -18.1470  -10.6750 C.3    20  LEU20       0.0001
     36  N         37.1070  -23.4370   -6.7890 N.3    22  ASN22      -0.1225
     37  CA        36.8180  -23.8630   -5.4270 C.3    22  ASN22       0.1785
     38  C         36.2330  -22.7230   -4.5860 C.2    22  ASN22       0.2597
     39  O         35.1240  -22.8800   -4.0790 O.2    22  ASN22      -0.2718
     40  CB        38.0660  -24.4740   -4.7540 C.3    22  ASN22       0.1169
     41  CG        37.9520  -25.9740   -4.5230 C.2    22  ASN22       0.2627
     42  OD1       38.7930  -26.7500   -4.9390 O.2    22  ASN22      -0.2716
     43  ND2       36.9010  -26.4290   -3.8770 N.am   22  ASN22      -0.0877
     44  N         36.9520  -21.5980   -4.4540 N.am   23  VAL23      -0.1966
     45  CA        36.5350  -20.4170   -3.6770 C.3    23  VAL23       0.1727
     46  C         35.1660  -19.9290   -4.1210 C.2    23  VAL23       0.2616
     47  O         34.3680  -19.6010   -3.2520 O.2    23  VAL23      -0.2715
     48  CB        37.5510  -19.2490   -3.6690 C.3    23  VAL23       0.0290
     49  CG1       38.9380  -19.6770   -3.1700 C.3    23  VAL23       0.0023
     50  CG2       37.6560  -18.4640   -4.9850 C.3    23  VAL23       0.0023
     51  N         34.8620  -19.9960   -5.4310 N.am   24  ILE24      -0.1977
     52  CA        33.5330  -19.7570   -6.0080 C.3    24  ILE24       0.1596
     53  C         32.4720  -20.5390   -5.2220 C.2    24  ILE24       0.2287
     54  O         31.5090  -19.9500   -4.7430 O.2    24  ILE24      -0.2864
     55  CB        33.5100  -19.9820   -7.5530 C.3    24  ILE24       0.0276
     56  CG1       33.5180  -18.6270   -8.2900 C.3    24  ILE24       0.0022
     57  CG2       32.2700  -20.7390   -8.0650 C.3    24  ILE24       0.0022
     58  CD1       34.8590  -17.8950   -8.2560 C.3    24  ILE24       0.0001
     59  N         32.6700  -21.8990   -2.1720 N.3    26  LYS26      -0.1231
     60  CA        32.6590  -21.4610   -0.7600 C.3    26  LYS26       0.1693
     61  C         31.9890  -20.0950   -0.5990 C.2    26  LYS26       0.2591
     62  O         31.0540  -19.9780    0.1920 O.2    26  LYS26      -0.2718
     63  CB        34.0620  -21.4540   -0.1170 C.3    26  LYS26       0.0285
     64  CG        34.6550  -22.8560    0.1340 C.3    26  LYS26       0.0035
     65  CD        35.1910  -23.4990   -1.1500 C.3    26  LYS26       0.0206
     66  CE        36.0720  -24.7240   -0.9020 C.3    26  LYS26       0.1093
     67  NZ        35.3010  -25.9800   -0.8920 N.3    26  LYS26      -0.1314
     68  N         32.3940  -19.0890   -1.3810 N.am   27  ILE27      -0.1980
     69  CA        31.8020  -17.7500   -1.2960 C.3    27  ILE27       0.1595
     70  C         30.3090  -17.7730   -1.5890 C.2    27  ILE27       0.2287
     71  O         29.5400  -17.1280   -0.8820 O.2    27  ILE27      -0.2864
     72  CB        32.5100  -16.7240   -2.1980 C.3    27  ILE27       0.0276
     73  CG1       32.0750  -15.2930   -1.8420 C.3    27  ILE27       0.0022
     74  CG2       32.3760  -16.9720   -3.7130 C.3    27  ILE27       0.0022
     75  CD1       30.8960  -14.7090   -2.6350 C.3    27  ILE27       0.0001
     76  N         26.9880  -19.4370    1.0560 N.3    30  LYS30      -0.1245
     77  CA        26.1250  -18.7470    2.0470 C.3    30  LYS30       0.1561
     78  C         24.7420  -18.3760    1.4900 C.2    30  LYS30       0.2260
     79  O         23.7920  -18.2480    2.2570 O.2    30  LYS30      -0.2867
     80  CB        26.8090  -17.5160    2.6780 C.3    30  LYS30       0.0271
     81  CG        27.3010  -16.5180    1.6260 C.3    30  LYS30       0.0035
     82  CD        27.8510  -15.2110    2.2230 C.3    30  LYS30       0.0206
     83  CE        29.2380  -14.8740    1.6590 C.3    30  LYS30       0.1093
     84  NZ        30.3090  -15.4810    2.4750 N.3    30  LYS30      -0.1314
     85  N         25.5410   -9.4140   -3.6080 N.3    66  ASN66      -0.1225
     86  CA        26.3070   -9.7320   -2.4000 C.3    66  ASN66       0.1785
     87  C         27.8070   -9.9100   -2.6570 C.2    66  ASN66       0.2597
     88  O         28.6110   -9.5640   -1.7990 O.2    66  ASN66      -0.2718
     89  CB        25.7420  -11.0050   -1.7650 C.3    66  ASN66       0.1169
     90  CG        24.4670  -10.7820   -0.9810 C.2    66  ASN66       0.2627
     91  OD1       24.4590  -10.7630    0.2350 O.2    66  ASN66      -0.2716
     92  ND2       23.3490  -10.6300   -1.6350 N.am   66  ASN66      -0.0877
     93  N         28.1920  -10.4240   -3.8270 N.am   67  ALA67      -0.1966
     94  CA        29.5820  -10.6900   -4.1910 C.3    67  ALA67       0.1728
     95  C         30.1210   -9.7370   -5.2740 C.2    67  ALA67       0.2616
     96  O         31.1060  -10.0540   -5.9390 O.2    67  ALA67      -0.2715
     97  CB        29.6850  -12.1520   -4.6140 C.3    67  ALA67       0.0334
     98  N         29.4550   -8.5970   -5.4950 N.am   68  ASP68      -0.1957
     99  CA        29.7890   -7.5560   -6.4730 C.3    68  ASP68       0.1840
    100  C         31.2430   -7.0600   -6.3270 C.2    68  ASP68       0.2623
    101  O         31.5070   -6.0950   -5.6110 O.2    68  ASP68      -0.2715
    102  CB        28.7810   -6.3910   -6.3610 C.3    68  ASP68       0.1450
    103  CG        29.1240   -5.2550   -7.3340 C.2    68  ASP68       0.3671
    104  OD1       29.6330   -5.5650   -8.4310 O.co2  68  ASP68      -0.2456
    105  OD2       28.8700   -4.0870   -6.9430 O.co2  68  ASP68      -0.2456
    106  N         32.1750   -7.7290   -7.0180 N.am   69  GLY69      -0.1940
    107  CA        33.6000   -7.4210   -6.9800 C.3    69  GLY69       0.2014
    108  C         34.2910   -8.2000   -5.8670 C.2    69  GLY69       0.2639
    109  O         34.1090   -7.9180   -4.6900 O.2    69  GLY69      -0.2714
    110  N         35.0620   -9.2250   -6.2210 N.am   70  TYR70      -0.1959
    111  CA        35.8210  -10.0190   -5.2560 C.3    70  TYR70       0.1771
    112  C         37.1350   -9.3200   -4.8300 C.2    70  TYR70       0.2619
    113  O         37.7860   -8.6680   -5.6480 O.2    70  TYR70      -0.2715
    114  CB        36.0960  -11.3820   -5.8930 C.3    70  TYR70       0.0574
    115  CG        34.9380  -11.9940   -6.6730 C.ar   70  TYR70      -0.0198
    116  CD1       33.7070  -12.2650   -6.0440 C.ar   70  TYR70      -0.0009
    117  CD2       35.1100  -12.3240   -8.0290 C.ar   70  TYR70      -0.0009
    118  CE1       32.7230  -13.0100   -6.7170 C.ar   70  TYR70       0.0417
    119  CE2       34.1000  -13.0080   -8.7290 C.ar   70  TYR70       0.0417
    120  CZ        32.9230  -13.3980   -8.0520 C.ar   70  TYR70       0.1957
    121  OH        31.9930  -14.1760   -8.6540 O.3    70  TYR70      -0.2866
    122  N         37.5880   -9.4950   -3.5780 N.am   71  LYS71      -0.1963
    123  CA        38.8320   -8.8710   -3.0670 C.3    71  LYS71       0.1728
    124  C         40.0530   -9.8060   -3.0750 C.2    71  LYS71       0.2616
    125  O         40.6850  -10.0060   -2.0430 O.2    71  LYS71      -0.2715
    126  CB        38.5710   -8.1480   -1.7320 C.3    71  LYS71       0.0311
    127  CG        38.0860   -9.0710   -0.5970 C.3    71  LYS71       0.0038
    128  CD        36.8030   -8.5480    0.0550 C.3    71  LYS71       0.0206
    129  CE        36.3100   -9.4940    1.1560 C.3    71  LYS71       0.1093
    130  NZ        35.3060   -8.8600    2.0290 N.3    71  LYS71      -0.1314
    131  N         40.4280  -10.3040   -4.2650 N.am   72  LEU72      -0.1963
    132  CA        41.5940  -11.1950   -4.4660 C.3    72  LEU72       0.1728
    133  C         42.9530  -10.5370   -4.1130 C.2    72  LEU72       0.2616
    134  O         43.9680  -11.2200   -4.0740 O.2    72  LEU72      -0.2715
    135  CB        41.6410  -11.7180   -5.9270 C.3    72  LEU72       0.0311
    136  CG        41.9930  -13.2160   -6.1360 C.3    72  LEU72       0.0022
    137  CD1       42.2290  -13.5080   -7.6320 C.3    72  LEU72       0.0001
    138  CD2       43.2200  -13.7270   -5.3870 C.3    72  LEU72       0.0001
    139  N         43.0000   -9.2190   -3.8740 N.am   73  ASP73      -0.1971
    140  CA        44.2180   -8.4590   -3.5570 C.3    73  ASP73       0.1709
    141  C         45.3230   -8.6170   -4.6300 C.2    73  ASP73       0.2293
    142  O         46.3920   -9.1710   -4.3770 O.2    73  ASP73      -0.2864
    143  CB        44.6790   -8.8010   -2.1220 C.3    73  ASP73       0.1436
    144  CG        45.8800   -7.9600   -1.6860 C.2    73  ASP73       0.3671
    145  OD1       45.8260   -6.7400   -1.9390 O.co2  73  ASP73      -0.2456
    146  OD2       46.8090   -8.5330   -1.0780 O.co2  73  ASP73      -0.2456
    147  N         39.5830   -4.8460   -9.3380 N.3    77  THR77      -0.1203
    148  CA        38.4240   -5.6000   -8.8500 C.3    77  THR77       0.1994
    149  C         37.6320   -6.2300  -10.0030 C.2    77  THR77       0.2617
    150  O         37.7570   -5.8440  -11.1660 O.2    77  THR77      -0.2717
    151  CB        37.5110   -4.7080   -7.9700 C.3    77  THR77       0.1784
    152  OG1       38.2330   -3.6500   -7.3820 O.3    77  THR77      -0.2211
    153  CG2       36.8990   -5.4760   -6.7990 C.3    77  THR77       0.0376
    154  N         36.7990   -7.2040   -9.6570 N.am   78  PHE78      -0.1975
    155  CA        35.8780   -7.9190  -10.5510 C.3    78  PHE78       0.1639
    156  C         34.5220   -7.2120  -10.5860 C.2    78  PHE78       0.2290
    157  O         34.2800   -6.2870   -9.8120 O.2    78  PHE78      -0.2864
    158  CB        35.7380   -9.3850  -10.1020 C.3    78  PHE78       0.0560
    159  CG        37.0690  -10.0470   -9.7840 C.ar   78  PHE78      -0.0200
    160  CD1       37.6940   -9.7480   -8.5660 C.ar   78  PHE78      -0.0042
    161  CD2       37.7200  -10.9010  -10.6960 C.ar   78  PHE78      -0.0042
    162  CE1       38.9730  -10.2370   -8.2680 C.ar   78  PHE78      -0.0003
    163  CE2       38.9920  -11.4180  -10.3840 C.ar   78  PHE78      -0.0003
    164  CZ        39.6320  -11.0630   -9.1840 C.ar   78  PHE78      -0.0000
@<TRIPOS>BOND
     1     4     3    2
     2     3     2    1
     3     6     5    1
     4     1     2    1
     5     2     5    1
     6     5     7    1
     7    34    33    1
     8   150   149    2
     9    33    35    1
    10    33    32    1
    11   161   163   ar
    12   161   159   ar
    13   156   155    1
    14   156   157    2
    15   155   158    1
    16   155   154    1
    17   163   164   ar
    18   158   159    1
    19    32    29    1
    20   149   154   am
    21   149   148    1
    22   159   160   ar
    23   147   148    1
    24   164   162   ar
    25   148   151    1
    26   119   120   ar
    27   119   117   ar
    28    30    29    1
    29    30    31    2
    30   121   120    1
    31    29    28    1
    32   160   162   ar
    33   104   103   ar
    34    56    58    1
    35    56    55    1
    36    10    11    2
    37    10     9    1
    38    57    55    1
    39   120   118   ar
    40   117   115   ar
    41   151   152    1
    42   151   153    1
    43    28    21   am
    44   137   136    1
    45    55    52    1
    46     8     9    1
    47   103   105   ar
    48   103   102    1
    49    12     9    1
    50    12    13    1
    51   106   107    1
    52   106   100   am
    53    13    14    1
    54   107   108    1
    55    36    37    1
    56   118   116   ar
    57   115   116   ar
    58   115   114    1
    59    19    20    1
    60    21    22    2
    61    21    20    1
    62    99   102    1
    63    99   100    1
    64    99    98    1
    65   100   101    2
    66   110   108   am
    67   110   111    1
    68   136   135    1
    69   136   138    1
    70    52    51    1
    71    52    53    1
    72    96    95    2
    73   135   132    1
    74    14    15    1
    75   114   111    1
    76   108   109    2
    77    20    23    1
    78   113   112    2
    79    98    95   am
    80    51    46   am
    81    37    40    1
    82    37    38    1
    83    15    16    2
    84    95    94    1
    85   111   112    1
    86    53    54    2
    87    23    24    1
    88    50    48    1
    89    42    41    2
    90   112   122   am
    91    40    41    1
    92   141   142    2
    93   141   140    1
    94    97    94    1
    95    38    44   am
    96    38    39    2
    97    41    43   am
    98   132   131    1
    99   132   133    1
   100    44    45    1
   101    16    18    1
   102    16    17    1
   103   131   124   am
   104    94    93    1
   105    46    45    1
   106    46    47    2
   107   133   134    2
   108   133   139   am
   109   139   140    1
   110    93    87   am
   111    74    72    1
   112    45    48    1
   113    48    49    1
   114    85    86    1
   115   122   123    1
   116   140   143    1
   117    24    25    1
   118    25    26    1
   119   124   123    1
   120   124   125    2
   121   123   126    1
   122    87    86    1
   123    87    88    2
   124    75    73    1
   125    86    89    1
   126    72    73    1
   127    72    69    1
   128    59    60    1
   129   143   144    1
   130   145   144   ar
   131    89    90    1
   132    27    26    1
   133   126   127    1
   134   144   146   ar
   135    92    90   am
   136    70    69    1
   137    70    71    2
   138    68    69    1
   139    68    61   am
   140    65    66    1
   141    65    64    1
   142    90    91    2
   143    66    67    1
   144    60    61    1
   145    60    63    1
   146    61    62    2
   147   127   128    1
   148    63    64    1
   149   128   129    1
   150    76    77    1
   151   129   130    1
   152    78    77    1
   153    78    79    2
   154    81    82    1
   155    81    80    1
   156    83    82    1
   157    83    84    1
   158    77    80    1
