@<TRIPOS>MOLECULE
tmp/2krdA00.pdb
 115 107 0 0 0
SMALL
GASTEIGER

@<TRIPOS>ATOM
      1  N         48.6070    1.7970   -0.5000 N.3    27  PHE27      -0.1241
      2  CA        48.7200    1.0870   -1.7690 C.3    27  PHE27       0.1605
      3  C         47.7720   -0.1120   -1.8250 C.2    27  PHE27       0.2264
      4  O         47.2550   -0.4560   -2.8860 O.2    27  PHE27      -0.2867
      5  CB        50.1510    0.6190   -1.9550 C.3    27  PHE27       0.0534
      6  CG        51.0470    1.8170   -1.8810 C.ar   27  PHE27      -0.0203
      7  CD1       51.0700    2.7430   -2.9230 C.ar   27  PHE27      -0.0042
      8  CD2       51.8390    2.0120   -0.7520 C.ar   27  PHE27      -0.0042
      9  CE1       51.8900    3.8650   -2.8370 C.ar   27  PHE27      -0.0003
     10  CE2       52.6550    3.1330   -0.6600 C.ar   27  PHE27      -0.0003
     11  CZ        52.6830    4.0640   -1.7020 C.ar   27  PHE27      -0.0000
     12  N         52.0090   -4.3410   -3.7830 N.3    36  ILE36      -0.1245
     13  CA        51.7480   -3.1670   -4.6280 C.3    36  ILE36       0.1561
     14  C         52.0090   -3.5520   -6.0960 C.2    36  ILE36       0.2260
     15  O         53.0530   -4.1250   -6.4120 O.2    36  ILE36      -0.2867
     16  CB        52.6680   -1.9960   -4.1970 C.3    36  ILE36       0.0252
     17  CG1       52.4300   -1.6940   -2.7060 C.3    36  ILE36       0.0019
     18  CG2       52.3460   -0.7350   -5.0240 C.3    36  ILE36       0.0019
     19  CD1       53.4760   -0.6980   -2.1890 C.3    36  ILE36       0.0001
     20  N         50.8500    1.8030   -7.1770 N.3    41  LEU41      -0.1245
     21  CA        52.1310    2.4540   -6.8600 C.3    41  LEU41       0.1561
     22  C         52.1200    3.9360   -7.2320 C.2    41  LEU41       0.2260
     23  O         52.7360    4.7360   -6.5520 O.2    41  LEU41      -0.2867
     24  CB        53.3140    1.7450   -7.5540 C.3    41  LEU41       0.0270
     25  CG        54.6530    2.3440   -7.0860 C.3    41  LEU41       0.0019
     26  CD1       54.8360    2.1200   -5.5790 C.3    41  LEU41       0.0001
     27  CD2       55.8070    1.6840   -7.8410 C.3    41  LEU41       0.0001
     28  N         52.6320    6.4040   -4.8220 N.3    44  VAL44      -0.1231
     29  CA        53.9350    6.5410   -4.1760 C.3    44  VAL44       0.1692
     30  C         54.6800    7.7760   -4.6910 C.2    44  VAL44       0.2591
     31  O         55.2110    8.5670   -3.9140 O.2    44  VAL44      -0.2718
     32  CB        54.7790    5.2650   -4.4110 C.3    44  VAL44       0.0266
     33  CG1       55.5920    5.3750   -5.7160 C.3    44  VAL44       0.0020
     34  CG2       55.7380    5.0540   -3.2380 C.3    44  VAL44       0.0020
     35  N         54.6610    7.9640   -5.9990 N.am   45  MET45      -0.1979
     36  CA        55.2720    9.1350   -6.6150 C.3    45  MET45       0.1605
     37  C         54.5350   10.4070   -6.2200 C.2    45  MET45       0.2287
     38  O         55.1460   11.4510   -5.9960 O.2    45  MET45      -0.2864
     39  CB        55.3350    8.9770   -8.1380 C.3    45  MET45       0.0413
     40  CG        56.3730    7.9070   -8.4900 C.3    45  MET45       0.0598
     41  SD        58.0110    8.4620   -7.9410 S.3    45  MET45      -0.1393
     42  CE        58.3370    9.6320   -9.2850 C.3    45  MET45       0.0692
     43  N         53.1060   10.9680   -3.4300 N.3    47  MET47      -0.1230
     44  CA        53.4790   11.3200   -2.0540 C.3    47  MET47       0.1702
     45  C         54.6480   12.2930   -2.1060 C.2    47  MET47       0.2592
     46  O         54.6380   13.3450   -1.4620 O.2    47  MET47      -0.2718
     47  CB        53.9530   10.0650   -1.2920 C.3    47  MET47       0.0401
     48  CG        52.8340    9.0230   -1.1860 C.3    47  MET47       0.0596
     49  SD        53.3870    7.6260   -0.1550 S.3    47  MET47      -0.1393
     50  CE        54.9870    7.3020   -0.9480 C.3    47  MET47       0.0692
     51  N         55.6130   11.9630   -2.9530 N.am   48  LEU48      -0.1980
     52  CA        56.7540   12.8180   -3.2130 C.3    48  LEU48       0.1596
     53  C         56.3150   14.0980   -3.9200 C.2    48  LEU48       0.2287
     54  O         56.7490   15.1970   -3.5690 O.2    48  LEU48      -0.2864
     55  CB        57.7640   12.0500   -4.0600 C.3    48  LEU48       0.0297
     56  CG        58.3470   10.9100   -3.2160 C.3    48  LEU48       0.0022
     57  CD1       59.1820    9.9780   -4.1030 C.3    48  LEU48       0.0001
     58  CD2       59.2330   11.4960   -2.1110 C.3    48  LEU48       0.0001
     59  N         60.2860    1.7530  -11.5770 N.3    60  MET60      -0.1230
     60  CA        60.7190    2.0460  -10.2150 C.3    60  MET60       0.1702
     61  C         60.7250    0.7540   -9.4000 C.2    60  MET60       0.2592
     62  O         61.7100    0.4370   -8.7350 O.2    60  MET60      -0.2718
     63  CB        59.7440    3.0450   -9.5810 C.3    60  MET60       0.0401
     64  CG        59.9600    4.4440  -10.1730 C.3    60  MET60       0.0596
     65  SD        58.6410    5.5500   -9.6000 S.3    60  MET60      -0.1393
     66  CE        58.9750    5.4390   -7.8280 C.3    60  MET60       0.0692
     67  N         59.6750   -0.0550   -9.5830 N.am   61  ILE61      -0.1980
     68  CA        59.6200   -1.3970   -9.0010 C.3    61  ILE61       0.1595
     69  C         60.7070   -2.2870   -9.6000 C.2    61  ILE61       0.2287
     70  O         61.3580   -3.0350   -8.8950 O.2    61  ILE61      -0.2864
     71  CB        58.2370   -2.0510   -9.2290 C.3    61  ILE61       0.0276
     72  CG1       57.1560   -1.3310   -8.4040 C.3    61  ILE61       0.0022
     73  CG2       58.2820   -3.5290   -8.8230 C.3    61  ILE61       0.0022
     74  CD1       55.7720   -1.8290   -8.8380 C.3    61  ILE61       0.0001
     75  N         64.0460   -1.3680   -8.1530 N.3    64  VAL64      -0.1245
     76  CA        64.0120   -1.5960   -6.7040 C.3    64  VAL64       0.1561
     77  C         63.7610   -3.0740   -6.3210 C.2    64  VAL64       0.2260
     78  O         64.1420   -3.5070   -5.2310 O.2    64  VAL64      -0.2867
     79  CB        62.9760   -0.6520   -6.0540 C.3    64  VAL64       0.0252
     80  CG1       61.5660   -1.2220   -6.1850 C.3    64  VAL64       0.0019
     81  CG2       63.3010   -0.4250   -4.5760 C.3    64  VAL64       0.0019
     82  N         55.9570   -5.3380   -5.4820 N.3    72  VAL72      -0.1245
     83  CA        56.5440   -5.0980   -4.1640 C.3    72  VAL72       0.1561
     84  C         55.5200   -5.3300   -3.0570 C.2    72  VAL72       0.2260
     85  O         54.5890   -4.5380   -2.8850 O.2    72  VAL72      -0.2867
     86  CB        57.0930   -3.6590   -4.0900 C.3    72  VAL72       0.0252
     87  CG1       58.4720   -3.5970   -4.7490 C.3    72  VAL72       0.0019
     88  CG2       56.1520   -2.7140   -4.8450 C.3    72  VAL72       0.0019
     89  N         59.0040   -5.1900    0.6620 N.3    77  PHE77      -0.1241
     90  CA        59.1160   -3.8090    1.0830 C.3    77  PHE77       0.1605
     91  C         59.8410   -3.7140    2.4240 C.2    77  PHE77       0.2264
     92  O         60.7490   -2.8990    2.5900 O.2    77  PHE77      -0.2867
     93  CB        57.7200   -3.1610    1.1370 C.3    77  PHE77       0.0534
     94  CG        57.8010   -1.7400    1.6590 C.ar   77  PHE77      -0.0203
     95  CD1       58.6260   -0.7990    1.0300 C.ar   77  PHE77      -0.0042
     96  CD2       57.0330   -1.3650    2.7650 C.ar   77  PHE77      -0.0042
     97  CE1       58.6800    0.5150    1.5140 C.ar   77  PHE77      -0.0003
     98  CE2       57.0920   -0.0530    3.2470 C.ar   77  PHE77      -0.0003
     99  CZ        57.9150    0.8860    2.6200 C.ar   77  PHE77      -0.0000
    100  N         63.4640   -6.2100    1.5450 N.3    80  MET80      -0.1230
    101  CA        64.2040   -5.8410    0.3270 C.3    80  MET80       0.1702
    102  C         64.7590   -4.4370    0.4520 C.2    80  MET80       0.2592
    103  O         65.8800   -4.1590    0.0410 O.2    80  MET80      -0.2718
    104  CB        63.2910   -5.9160   -0.8990 C.3    80  MET80       0.0401
    105  CG        64.0770   -5.6000   -2.1720 C.3    80  MET80       0.0596
    106  SD        62.9370   -5.6540   -3.5720 S.3    80  MET80      -0.1393
    107  CE        61.9570   -4.1900   -3.1320 C.3    80  MET80       0.0692
    108  N         63.9600   -3.5580    1.0190 N.am   81  MET81      -0.1979
    109  CA        64.3490   -2.1760    1.2050 C.3    81  MET81       0.1605
    110  C         65.5780   -2.0810    2.1170 C.2    81  MET81       0.2287
    111  O         66.4530   -1.2360    1.9130 O.2    81  MET81      -0.2864
    112  CB        63.1720   -1.3620    1.7380 C.3    81  MET81       0.0413
    113  CG        63.5250    0.1210    1.7090 C.3    81  MET81       0.0598
    114  SD        62.0210    1.1070    1.9100 S.3    81  MET81      -0.1393
    115  CE        61.7010    1.3990    0.1490 C.3    81  MET81       0.0692
@<TRIPOS>BOND
     1    59    60    1
     2    60    63    1
     3    60    61    1
     4    64    65    1
     5    64    63    1
     6    65    66    1
     7    69    68    1
     8    69    70    2
     9    67    61   am
    10    67    68    1
    11    61    62    2
    12    42    41    1
    13    71    68    1
    14    71    73    1
    15    71    72    1
    16    74    72    1
    17    40    39    1
    18    40    41    1
    19    75    76    1
    20    39    36    1
    21    27    25    1
    22    24    25    1
    23    24    21    1
    24    22    21    1
    25    22    23    2
    26    20    21    1
    27    25    26    1
    28    76    77    1
    29    76    79    1
    30    36    37    1
    31    36    35    1
    32    15    14    2
    33    77    78    2
    34    37    38    2
    35    80    79    1
    36    14    13    1
    37    79    81    1
    38    35    30   am
    39    33    32    1
    40    82    83    1
    41    18    16    1
    42    88    86    1
    43    28    29    1
    44    87    86    1
    45    30    29    1
    46    30    31    2
    47    13    16    1
    48    13    12    1
    49    32    29    1
    50    32    34    1
    51    16    17    1
    52    83    86    1
    53    83    84    1
    54    57    56    1
    55    55    56    1
    56    55    52    1
    57    53    54    2
    58    53    52    1
    59   106   107    1
    60   106   105    1
    61    43    44    1
    62    56    58    1
    63    52    51    1
    64    84    85    2
    65    51    45   am
    66     7     9   ar
    67     7     6   ar
    68     4     3    2
    69     9    11   ar
    70    17    19    1
    71   105   104    1
    72    45    44    1
    73    45    46    2
    74    44    47    1
    75     5     6    1
    76     5     2    1
    77     6     8   ar
    78     3     2    1
    79     2     1    1
    80    11    10   ar
    81    47    48    1
    82    48    49    1
    83    50    49    1
    84   104   101    1
    85     8    10   ar
    86   103   102    2
    87   115   114    1
    88   101   102    1
    89   101   100    1
    90   102   108   am
    91    89    90    1
    92   108   109    1
    93    95    97   ar
    94    95    94   ar
    95    90    93    1
    96    90    91    1
    97    93    94    1
    98   109   112    1
    99   109   110    1
   100    97    99   ar
   101    94    96   ar
   102   113   112    1
   103   113   114    1
   104   111   110    2
   105    91    92    2
   106    99    98   ar
   107    96    98   ar
