@<TRIPOS>MOLECULE
tmp/2ks9A00.pdb
 132 127 0 0 0
SMALL
GASTEIGER

@<TRIPOS>ATOM
      1  N        -16.8890  -19.4770  -19.2380 N.3     2  ASN2       -0.1225
      2  CA       -16.6540  -18.0650  -19.2380 C.3     2  ASN2        0.1785
      3  C        -17.3540  -17.4090  -20.3950 C.2     2  ASN2        0.2597
      4  O        -17.6760  -18.0340  -21.4030 O.2     2  ASN2       -0.2718
      5  CB       -15.1390  -17.8060  -19.3710 C.3     2  ASN2        0.1169
      6  CG       -14.8250  -16.3240  -19.3690 C.2     2  ASN2        0.2627
      7  OD1      -15.1720  -15.5940  -18.4450 O.2     2  ASN2       -0.2716
      8  ND2      -14.1340  -15.8620  -20.4480 N.am    2  ASN2       -0.0877
      9  N        -17.6380  -16.1030  -20.2140 N.am    3  VAL3       -0.1966
     10  CA       -18.1830  -15.1840  -21.1740 C.3     3  VAL3        0.1727
     11  C        -17.2910  -14.0160  -20.9520 C.2     3  VAL3        0.2616
     12  O        -16.2240  -14.2150  -20.3890 O.2     3  VAL3       -0.2715
     13  CB       -19.5950  -14.7580  -20.9060 C.3     3  VAL3        0.0290
     14  CG1      -20.5030  -15.9920  -21.0290 C.3     3  VAL3        0.0023
     15  CG2      -19.6560  -14.0760  -19.5340 C.3     3  VAL3        0.0023
     16  N        -17.6320  -12.7880  -21.3800 N.am    4  LEU4       -0.1977
     17  CA       -16.7050  -11.7320  -21.0680 C.3     4  LEU4        0.1596
     18  C        -16.6180  -11.6820  -19.5620 C.2     4  LEU4        0.2287
     19  O        -15.5410  -11.4910  -18.9990 O.2     4  LEU4       -0.2864
     20  CB       -17.1260  -10.3470  -21.6040 C.3     4  LEU4        0.0297
     21  CG       -17.1420  -10.2540  -23.1420 C.3     4  LEU4        0.0022
     22  CD1      -18.1820  -11.2060  -23.7530 C.3     4  LEU4        0.0001
     23  CD2      -17.3210   -8.8000  -23.6090 C.3     4  LEU4        0.0001
     24  N        -22.4830  -17.8420  -20.2260 N.3     9  ASP9       -0.1239
     25  CA       -23.7000  -17.2800  -20.7200 C.3     9  ASP9        0.1674
     26  C        -24.5110  -18.3910  -21.2900 C.2     9  ASP9        0.2266
     27  O        -25.0130  -18.2920  -22.4090 O.2     9  ASP9       -0.2867
     28  CB       -23.4860  -16.2100  -21.8080 C.3     9  ASP9        0.1410
     29  CG       -22.7610  -16.8350  -22.9880 C.2     9  ASP9        0.3668
     30  OD1      -22.2860  -17.9930  -22.8450 O.co2   9  ASP9       -0.2456
     31  OD2      -22.6680  -16.1600  -24.0480 O.co2   9  ASP9       -0.2456
     32  N        -25.9610  -13.1260  -19.0840 N.3    14  ILE14      -0.1231
     33  CA       -24.7860  -12.3020  -18.9670 C.3    14  ILE14       0.1692
     34  C        -24.9590  -11.0100  -19.7120 C.2    14  ILE14       0.2593
     35  O        -25.4780  -10.9850  -20.8290 O.2    14  ILE14      -0.2718
     36  CB       -23.5420  -12.9540  -19.5060 C.3    14  ILE14       0.0266
     37  CG1      -23.6630  -13.1810  -21.0210 C.3    14  ILE14       0.0019
     38  CG2      -23.2960  -14.2420  -18.7020 C.3    14  ILE14       0.0020
     39  CD1      -22.3270  -13.5000  -21.6910 C.3    14  ILE14       0.0001
     40  N        -24.5380   -9.8880  -19.0680 N.am   15  SER15      -0.1938
     41  CA       -24.6030   -8.5840  -19.6760 C.3    15  SER15       0.2055
     42  C        -23.3520   -7.8430  -19.2980 C.2    15  SER15       0.2643
     43  O        -22.7340   -8.1240  -18.2740 O.2    15  SER15      -0.2714
     44  CB       -25.8000   -7.7440  -19.2030 C.3    15  SER15       0.2130
     45  OG       -25.7890   -6.4770  -19.8460 O.3    15  SER15      -0.2179
     46  N        -22.9570   -6.8410  -20.1060 N.am   16  THR16      -0.1950
     47  CA       -21.7120   -6.1630  -19.8700 C.3    16  THR16       0.1897
     48  C        -21.7570   -5.4250  -18.5680 C.2    16  THR16       0.2313
     49  O        -22.7670   -4.8380  -18.1880 O.2    16  THR16      -0.2863
     50  CB       -21.3130   -5.2030  -20.9530 C.3    16  THR16       0.1794
     51  OG1      -19.9810   -4.7560  -20.7440 O.3    16  THR16      -0.2208
     52  CG2      -22.2780   -4.0130  -20.9460 C.3    16  THR16       0.0378
     53  N        -20.3770   -2.8940  -17.9780 N.3    18  THR18      -0.1203
     54  CA       -20.5830   -1.5110  -18.2990 C.3    18  THR18       0.1994
     55  C        -22.0470   -1.1700  -18.3830 C.2    18  THR18       0.2619
     56  O        -22.4500   -0.0670  -18.0160 O.2    18  THR18      -0.2717
     57  CB       -19.9710   -1.1360  -19.6150 C.3    18  THR18       0.1784
     58  OG1      -18.5750   -1.3980  -19.5970 O.3    18  THR18      -0.2211
     59  CG2      -20.2260    0.3600  -19.8670 C.3    18  THR18       0.0376
     60  N        -22.8610   -2.0740  -18.9710 N.am   19  SER19      -0.1937
     61  CA       -24.2590   -1.8210  -19.2170 C.3    19  SER19       0.2055
     62  C        -25.2120   -2.0900  -18.0830 C.2    19  SER19       0.2642
     63  O        -26.1260   -1.2970  -17.8610 O.2    19  SER19      -0.2714
     64  CB       -24.8080   -2.5960  -20.4280 C.3    19  SER19       0.2130
     65  OG       -24.2080   -2.1230  -21.6250 O.3    19  SER19      -0.2179
     66  N        -25.0590   -3.2130  -17.3440 N.am   20  GLU20      -0.1976
     67  CA       -26.1110   -3.5710  -16.4240 C.3    20  GLU20       0.1602
     68  C        -25.5540   -4.2280  -15.1890 C.2    20  GLU20       0.2287
     69  O        -24.3700   -4.5330  -15.1310 O.2    20  GLU20      -0.2864
     70  CB       -27.1360   -4.5310  -17.0630 C.3    20  GLU20       0.0415
     71  CG       -28.0080   -3.8540  -18.1220 C.3    20  GLU20       0.1163
     72  CD       -29.0680   -4.8480  -18.5740 C.2    20  GLU20       0.3649
     73  OE1      -30.0030   -5.1180  -17.7740 O.co2  20  GLU20      -0.2457
     74  OE2      -28.9580   -5.3530  -19.7230 O.co2  20  GLU20      -0.2457
     75  N        -16.3160    2.1670  -19.9660 N.3   101  LEU101     -0.1245
     76  CA       -14.9690    1.7350  -20.2660 C.3   101  LEU101      0.1561
     77  C        -13.9460    2.7700  -19.9100 C.2   101  LEU101      0.2260
     78  O        -12.8890    2.4270  -19.3800 O.2   101  LEU101     -0.2867
     79  CB       -14.7810    1.4120  -21.7590 C.3   101  LEU101      0.0270
     80  CG       -15.6740    0.2640  -22.2650 C.3   101  LEU101      0.0019
     81  CD1      -15.4380   -0.0090  -23.7590 C.3   101  LEU101      0.0001
     82  CD2      -15.5200   -0.9960  -21.3980 C.3   101  LEU101      0.0001
     83  N         -9.4820   -4.2120  -18.2520 N.3   171  GLU171     -0.1245
     84  CA       -10.7260   -4.9390  -17.7790 C.3   171  GLU171      0.1567
     85  C        -11.1980   -4.9410  -16.3020 C.2   171  GLU171      0.2260
     86  O        -10.4270   -4.7060  -15.3790 O.2   171  GLU171     -0.2867
     87  CB       -10.7930   -6.4150  -18.2120 C.3   171  GLU171      0.0388
     88  CG       -11.0950   -6.6030  -19.6970 C.3   171  GLU171      0.1160
     89  CD       -12.5680   -6.2980  -19.9220 C.2   171  GLU171      0.3649
     90  OE1      -13.2500   -5.9010  -18.9400 O.co2 171  GLU171     -0.2457
     91  OE2      -13.0310   -6.4600  -21.0820 O.co2 171  GLU171     -0.2457
     92  N         -7.9090  -12.5040  -18.1360 N.3   184  PRO184     -0.2102
     93  CA        -8.7410  -13.4770  -18.7900 C.3   184  PRO184      0.1504
     94  C         -8.5090  -13.8480  -20.2190 C.2   184  PRO184      0.2576
     95  O         -8.5030  -15.0390  -20.5210 O.2   184  PRO184     -0.2718
     96  CB       -10.1900  -13.0380  -18.5840 C.3   184  PRO184      0.0282
     97  CG       -10.1390  -12.1770  -17.3190 C.3   184  PRO184      0.0208
     98  CD        -8.7230  -11.5910  -17.3390 C.3   184  PRO184      0.0893
     99  N         -8.3030  -12.8780  -21.1230 N.am  185  GLU185     -0.1966
    100  CA        -8.2590  -13.2660  -22.4980 C.3   185  GLU185      0.1733
    101  C         -6.9300  -12.8990  -23.0130 C.2   185  GLU185      0.2613
    102  O         -6.1420  -12.2350  -22.3420 O.2   185  GLU185     -0.2715
    103  CB        -9.2960  -12.5500  -23.3810 C.3   185  GLU185      0.0429
    104  CG       -10.7430  -12.9330  -23.0680 C.3   185  GLU185      0.1163
    105  CD       -11.6450  -12.1520  -24.0130 C.2   185  GLU185      0.3649
    106  OE1      -11.4000  -12.2130  -25.2480 O.co2 185  GLU185     -0.2457
    107  OE2      -12.5850  -11.4790  -23.5140 O.co2 185  GLU185     -0.2457
    108  N         -6.6210  -13.3320  -24.2420 N.am  186  HIS186     -0.2027
    109  CA        -5.3500  -12.9250  -24.7330 C.3   186  HIS186      0.1342
    110  C         -5.5540  -11.9210  -25.8190 C.3   186  HIS186      0.2040
    111  O         -4.7770  -12.0150  -26.7610 O.3   186  HIS186     -0.2185
    112  CB        -4.5370  -14.1000  -25.3050 C.3   186  HIS186      0.0718
    113  CG        -5.3390  -14.9820  -26.2160 C.ar  186  HIS186      0.0817
    114  ND1       -6.2820  -15.8830  -25.7700 N.ar  186  HIS186     -0.2268
    115  CD2       -5.3250  -15.1020  -27.5720 C.ar  186  HIS186      0.1154
    116  CE1       -6.7860  -16.4990  -26.8680 C.ar  186  HIS186      0.1986
    117  NE2       -6.2360  -16.0590  -27.9850 N.ar  186  HIS186     -0.2212
    118  N         -6.9460  -19.6860  -18.5070 N.3   274  PRO274     -0.2102
    119  CA        -8.0800  -18.8160  -18.5790 C.3   274  PRO274      0.1504
    120  C         -9.2270  -19.6190  -19.0750 C.2   274  PRO274      0.2575
    121  O         -9.0070  -20.7110  -19.5940 O.2   274  PRO274     -0.2718
    122  CB        -7.6860  -17.6660  -19.5090 C.3   274  PRO274      0.0282
    123  CG        -6.4170  -18.1580  -20.2230 C.3   274  PRO274      0.0208
    124  CD        -5.8020  -19.1420  -19.2190 C.3   274  PRO274      0.0893
    125  N        -10.4550  -19.1040  -18.9120 N.am  275  ASP275     -0.1974
    126  CA       -11.6050  -19.7600  -19.4480 C.3   275  ASP275      0.1708
    127  C        -11.8020  -21.0610  -18.7480 C.2   275  ASP275      0.2293
    128  O        -12.5730  -21.9080  -19.1960 O.2   275  ASP275     -0.2864
    129  CB       -11.4320  -20.0440  -20.9510 C.3   275  ASP275      0.1436
    130  CG       -12.7560  -20.4990  -21.5390 C.2   275  ASP275      0.3671
    131  OD1      -13.8170  -20.1120  -20.9820 O.co2 275  ASP275     -0.2456
    132  OD2      -12.7210  -21.2370  -22.5590 O.co2 275  ASP275     -0.2456
@<TRIPOS>BOND
     1   117   115   ar
     2   117   116   ar
     3   115   113   ar
     4   116   114   ar
     5   111   110    1
     6   113   114   ar
     7   113   112    1
     8   110   109    1
     9   112   109    1
    10   106   105   ar
    11   109   108    1
    12   108   101   am
    13    31    29   ar
    14   105   107   ar
    15   105   104    1
    16    81    80    1
    17    22    21    1
    18    23    21    1
    19   103   104    1
    20   103   100    1
    21    21    20    1
    22   101   100    1
    23   101   102    2
    24    29    30   ar
    25    29    28    1
    26   132   130   ar
    27   100    99    1
    28    27    26    2
    29    80    79    1
    30    80    82    1
    31    28    25    1
    32    79    76    1
    33    39    37    1
    34    65    64    1
    35    20    17    1
    36   130   131   ar
    37   130   129    1
    38     4     3    2
    39    16    17    1
    40    16    11   am
    41    26    25    1
    42    10    11    1
    43    10    13    1
    44    10     9    1
    45    99    94   am
    46    91    89   ar
    47    17    18    1
    48    14    13    1
    49    37    36    1
    50    50    52    1
    51    50    51    1
    52    50    47    1
    53    11    12    2
    54   129   126    1
    55    13    15    1
    56    35    34    2
    57    25    24    1
    58    95    94    2
    59     8     6   am
    60    64    61    1
    61     3     9   am
    62     3     2    1
    63    76    75    1
    64    76    77    1
    65   123   122    1
    66   123   124    1
    67    94    93    1
    68    46    47    1
    69    46    42   am
    70    89    88    1
    71    89    90   ar
    72    77    78    2
    73    47    48    1
    74    59    57    1
    75    45    44    1
    76    74    72   ar
    77    34    40   am
    78    34    33    1
    79    88    87    1
    80    41    42    1
    81    41    44    1
    82    41    40    1
    83    57    58    1
    84    57    54    1
    85   121   120    2
    86    18    19    2
    87   122   119    1
    88    36    33    1
    89    36    38    1
    90   126   125    1
    91   126   127    1
    92     5     6    1
    93     5     2    1
    94     6     7    2
    95    42    43    2
    96     1     2    1
    97   124   118    1
    98    61    60    1
    99    61    62    1
   100   128   127    2
   101    32    33    1
   102   120   125   am
   103   120   119    1
   104    60    55   am
   105    93    96    1
   106    93    92    1
   107    96    97    1
   108   119   118    1
   109    72    71    1
   110    72    73   ar
   111    48    49    2
   112    55    54    1
   113    55    56    2
   114    54    53    1
   115    83    84    1
   116    87    84    1
   117    92    98    1
   118    71    70    1
   119    62    63    2
   120    62    66   am
   121    84    85    1
   122    66    67    1
   123    98    97    1
   124    70    67    1
   125    67    68    1
   126    85    86    2
   127    68    69    2
