@<TRIPOS>MOLECULE
tmp/2ksbA00.pdb
 156 149 0 0 0
SMALL
GASTEIGER

@<TRIPOS>ATOM
      1  N        -17.6480  -12.9150  -21.3890 N.3     4  LEU4       -0.1231
      2  CA       -16.7210  -11.8590  -21.0770 C.3     4  LEU4        0.1678
      3  C        -16.6340  -11.8090  -19.5710 C.2     4  LEU4        0.2434
      4  O        -15.5570  -11.6180  -19.0080 O.2     4  LEU4       -0.2733
      5  CB       -17.1420  -10.4740  -21.6130 C.3     4  LEU4        0.0284
      6  CG       -17.1580  -10.3810  -23.1510 C.3     4  LEU4        0.0019
      7  CD1      -18.1980  -11.3330  -23.7620 C.3     4  LEU4        0.0001
      8  CD2      -17.3370   -8.9270  -23.6180 C.3     4  LEU4        0.0001
      9  N        -17.7430  -11.9990  -18.9080 N.am    5  PRO5       -0.2729
     10  CA       -17.7080  -12.1530  -17.4750 C.3     5  PRO5        0.1401
     11  C        -17.3380  -13.5620  -17.1050 C.2     5  PRO5        0.2269
     12  O        -17.3500  -14.4390  -17.9680 O.2     5  PRO5       -0.2865
     13  CB       -19.0930  -11.7610  -16.9630 C.3     5  PRO5        0.0296
     14  CG       -19.6250  -10.8030  -18.0390 C.3     5  PRO5        0.0237
     15  CD       -18.9390  -11.2790  -19.3270 C.3     5  PRO5        0.0939
     16  N        -22.4990  -17.9690  -20.2350 N.3     9  ASP9       -0.1239
     17  CA       -23.7160  -17.4070  -20.7290 C.3     9  ASP9        0.1674
     18  C        -24.5270  -18.5180  -21.2990 C.2     9  ASP9        0.2266
     19  O        -25.0290  -18.4190  -22.4180 O.2     9  ASP9       -0.2867
     20  CB       -23.5020  -16.3370  -21.8170 C.3     9  ASP9        0.1410
     21  CG       -22.7770  -16.9620  -22.9970 C.2     9  ASP9        0.3668
     22  OD1      -22.3020  -18.1200  -22.8540 O.co2   9  ASP9       -0.2456
     23  OD2      -22.6840  -16.2870  -24.0570 O.co2   9  ASP9       -0.2456
     24  N        -28.8540  -16.5310  -21.7260 N.3    12  PRO12      -0.2116
     25  CA       -28.4820  -15.2840  -22.3350 C.3    12  PRO12       0.1372
     26  C        -28.2910  -14.2350  -21.2800 C.2    12  PRO12       0.2244
     27  O        -28.0900  -13.0750  -21.6340 O.2    12  PRO12      -0.2868
     28  CB       -29.6020  -14.9460  -23.3160 C.3    12  PRO12       0.0268
     29  CG       -30.1940  -16.3170  -23.6850 C.3    12  PRO12       0.0207
     30  CD       -29.9470  -17.1770  -22.4370 C.3    12  PRO12       0.0892
     31  N        -25.9770  -13.2530  -19.0930 N.3    14  ILE14      -0.1231
     32  CA       -24.8020  -12.4290  -18.9760 C.3    14  ILE14       0.1692
     33  C        -24.9750  -11.1370  -19.7210 C.2    14  ILE14       0.2593
     34  O        -25.4940  -11.1120  -20.8380 O.2    14  ILE14      -0.2718
     35  CB       -23.5580  -13.0810  -19.5150 C.3    14  ILE14       0.0266
     36  CG1      -23.6790  -13.3080  -21.0300 C.3    14  ILE14       0.0019
     37  CG2      -23.3120  -14.3690  -18.7110 C.3    14  ILE14       0.0020
     38  CD1      -22.3430  -13.6270  -21.7000 C.3    14  ILE14       0.0001
     39  N        -24.5540  -10.0150  -19.0770 N.am   15  SER15      -0.1938
     40  CA       -24.6190   -8.7110  -19.6850 C.3    15  SER15       0.2055
     41  C        -23.3680   -7.9700  -19.3070 C.2    15  SER15       0.2643
     42  O        -22.7500   -8.2510  -18.2830 O.2    15  SER15      -0.2714
     43  CB       -25.8160   -7.8710  -19.2120 C.3    15  SER15       0.2130
     44  OG       -25.8050   -6.6040  -19.8550 O.3    15  SER15      -0.2179
     45  N        -22.9730   -6.9680  -20.1150 N.am   16  THR16      -0.1950
     46  CA       -21.7280   -6.2900  -19.8790 C.3    16  THR16       0.1897
     47  C        -21.7730   -5.5520  -18.5770 C.2    16  THR16       0.2313
     48  O        -22.7830   -4.9650  -18.1970 O.2    16  THR16      -0.2863
     49  CB       -21.3290   -5.3300  -20.9620 C.3    16  THR16       0.1794
     50  OG1      -19.9970   -4.8830  -20.7530 O.3    16  THR16      -0.2208
     51  CG2      -22.2940   -4.1400  -20.9550 C.3    16  THR16       0.0378
     52  N        -20.3930   -3.0210  -17.9870 N.3    18  THR18      -0.1203
     53  CA       -20.5990   -1.6380  -18.3080 C.3    18  THR18       0.1994
     54  C        -22.0630   -1.2970  -18.3920 C.2    18  THR18       0.2619
     55  O        -22.4660   -0.1940  -18.0250 O.2    18  THR18      -0.2717
     56  CB       -19.9870   -1.2630  -19.6240 C.3    18  THR18       0.1784
     57  OG1      -18.5910   -1.5250  -19.6060 O.3    18  THR18      -0.2211
     58  CG2      -20.2420    0.2330  -19.8760 C.3    18  THR18       0.0376
     59  N        -22.8770   -2.2010  -18.9800 N.am   19  SER19      -0.1937
     60  CA       -24.2750   -1.9480  -19.2260 C.3    19  SER19       0.2055
     61  C        -25.2280   -2.2170  -18.0920 C.2    19  SER19       0.2642
     62  O        -26.1420   -1.4240  -17.8700 O.2    19  SER19      -0.2714
     63  CB       -24.8240   -2.7230  -20.4370 C.3    19  SER19       0.2130
     64  OG       -24.2240   -2.2500  -21.6340 O.3    19  SER19      -0.2179
     65  N        -25.0750   -3.3400  -17.3530 N.am   20  GLU20      -0.1976
     66  CA       -26.1270   -3.6980  -16.4330 C.3    20  GLU20       0.1602
     67  C        -25.5700   -4.3550  -15.1980 C.2    20  GLU20       0.2287
     68  O        -24.3860   -4.6600  -15.1400 O.2    20  GLU20      -0.2864
     69  CB       -27.1520   -4.6580  -17.0720 C.3    20  GLU20       0.0415
     70  CG       -28.0240   -3.9810  -18.1310 C.3    20  GLU20       0.1163
     71  CD       -29.0840   -4.9750  -18.5830 C.2    20  GLU20       0.3649
     72  OE1      -30.0190   -5.2450  -17.7830 O.co2  20  GLU20      -0.2457
     73  OE2      -28.9740   -5.4800  -19.7320 O.co2  20  GLU20      -0.2457
     74  N        -16.3320    2.0400  -19.9750 N.3   101  LEU101     -0.1231
     75  CA       -14.9850    1.6080  -20.2750 C.3   101  LEU101      0.1693
     76  C        -13.9620    2.6430  -19.9190 C.2   101  LEU101      0.2592
     77  O        -12.9050    2.3000  -19.3890 O.2   101  LEU101     -0.2718
     78  CB       -14.7970    1.2850  -21.7680 C.3   101  LEU101      0.0284
     79  CG       -15.6900    0.1370  -22.2740 C.3   101  LEU101      0.0019
     80  CD1      -15.4540   -0.1360  -23.7680 C.3   101  LEU101      0.0001
     81  CD2      -15.5360   -1.1230  -21.4070 C.3   101  LEU101      0.0001
     82  N        -14.2240    3.9310  -20.1910 N.am  102  PHE102     -0.1976
     83  CA       -13.2300    4.9180  -19.8740 C.3   102  PHE102      0.1639
     84  C        -12.9310    4.8640  -18.4210 C.2   102  PHE102      0.2290
     85  O        -11.7690    4.8540  -18.0160 O.2   102  PHE102     -0.2864
     86  CB       -13.6750    6.3620  -20.1450 C.3   102  PHE102      0.0560
     87  CG       -13.3840    6.6520  -21.5660 C.ar  102  PHE102     -0.0200
     88  CD1      -14.2610    6.3180  -22.5700 C.ar  102  PHE102     -0.0042
     89  CD2      -12.1980    7.2700  -21.8750 C.ar  102  PHE102     -0.0042
     90  CE1      -13.9480    6.6050  -23.8770 C.ar  102  PHE102     -0.0003
     91  CE2      -11.8810    7.5590  -23.1760 C.ar  102  PHE102     -0.0003
     92  CZ       -12.7580    7.2250  -24.1780 C.ar  102  PHE102     -0.0000
     93  N        -10.8590    2.1540  -17.0480 N.3   105  LYS105     -0.1245
     94  CA        -9.4770    2.4690  -17.2600 C.3   105  LYS105      0.1561
     95  C         -8.9780    3.3940  -16.2100 C.2   105  LYS105      0.2260
     96  O         -7.9160    3.1750  -15.6290 O.2   105  LYS105     -0.2867
     97  CB        -9.2020    3.1490  -18.6130 C.3   105  LYS105      0.0271
     98  CG        -7.7170    3.4530  -18.8260 C.3   105  LYS105      0.0035
     99  CD        -7.3580    3.8720  -20.2520 C.3   105  LYS105      0.0206
    100  CE        -7.2830    5.3880  -20.4430 C.3   105  LYS105      0.1093
    101  NZ        -6.8430    5.7030  -21.8200 N.3   105  LYS105     -0.1314
    102  N         -1.0300    0.0350  -19.6870 N.3   164  GLN164     -0.1231
    103  CA        -2.2860   -0.5500  -20.0460 C.3   164  GLN164      0.1698
    104  C         -3.0670    0.5050  -20.7820 C.2   164  GLN164      0.2592
    105  O         -3.8590    0.1870  -21.6680 O.2   164  GLN164     -0.2718
    106  CB        -3.1170   -0.9630  -18.8200 C.3   164  GLN164      0.0381
    107  CG        -2.4780   -2.0650  -17.9740 C.3   164  GLN164      0.0905
    108  CD        -3.3910   -2.3080  -16.7810 C.2   164  GLN164      0.2608
    109  OE1       -3.6680   -1.3960  -16.0030 O.2   164  GLN164     -0.2717
    110  NE2       -3.8830   -3.5670  -16.6310 N.am  164  GLN164     -0.0878
    111  N         -2.8980    1.7880  -20.3870 N.am  165  GLY165     -0.1957
    112  CA        -3.5490    2.9050  -21.0310 C.3   165  GLY165      0.1869
    113  C         -3.0350    2.9940  -22.4280 C.2   165  GLY165      0.2309
    114  O         -3.7770    3.2530  -23.3760 O.2   165  GLY165     -0.2863
    115  N         -1.7870    1.2160  -25.7260 N.3   167  TYR167     -0.1227
    116  CA        -2.4710    0.0290  -26.1530 C.3   167  TYR167      0.1736
    117  C         -1.8180   -1.1700  -25.5620 C.2   167  TYR167      0.2596
    118  O         -0.7580   -1.6350  -25.9740 O.2   167  TYR167     -0.2718
    119  CB        -2.5090   -0.1740  -27.6760 C.3   167  TYR167      0.0548
    120  CG        -3.5150    0.7600  -28.2530 C.ar  167  TYR167     -0.0200
    121  CD1       -3.2040    2.0730  -28.5190 C.ar  167  TYR167     -0.0009
    122  CD2       -4.7820    0.3040  -28.5340 C.ar  167  TYR167     -0.0009
    123  CE1       -4.1490    2.9180  -29.0540 C.ar  167  TYR167      0.0417
    124  CE2       -5.7310    1.1430  -29.0680 C.ar  167  TYR167      0.0417
    125  CZ        -5.4140    2.4530  -29.3290 C.ar  167  TYR167      0.1957
    126  OH        -6.3850    3.3170  -29.8780 O.3   167  TYR167     -0.2866
    127  N         -2.5280   -1.7360  -24.5810 N.am  168  SER168     -0.1952
    128  CA        -2.0730   -2.8660  -23.8620 C.3   168  SER168      0.1924
    129  C         -3.3330   -3.5140  -23.3960 C.2   168  SER168      0.2314
    130  O         -4.4320   -3.2020  -23.8640 O.2   168  SER168     -0.2863
    131  CB        -1.2370   -2.5230  -22.6170 C.3   168  SER168      0.2116
    132  OG        -0.0180   -1.9070  -23.0050 O.3   168  SER168     -0.2180
    133  N         -6.4000   -4.7120  -20.6480 N.3   170  THR170     -0.1203
    134  CA        -7.4210   -3.9640  -19.8730 C.3   170  THR170      0.1994
    135  C         -8.4710   -4.8690  -19.1020 C.2   170  THR170      0.2617
    136  O         -8.2960   -6.0780  -19.1940 O.2   170  THR170     -0.2717
    137  CB        -8.2790   -3.0680  -20.7220 C.3   170  THR170      0.1784
    138  OG1       -9.0010   -3.8490  -21.6640 O.3   170  THR170     -0.2211
    139  CG2       -7.4190   -2.0220  -21.4470 C.3   170  THR170      0.0376
    140  N         -9.4980   -4.3390  -18.2610 N.am  171  GLU171     -0.1979
    141  CA       -10.7420   -5.0660  -17.7880 C.3   171  GLU171      0.1602
    142  C        -11.2140   -5.0680  -16.3110 C.2   171  GLU171      0.2287
    143  O        -10.4430   -4.8330  -15.3880 O.2   171  GLU171     -0.2864
    144  CB       -10.8090   -6.5420  -18.2210 C.3   171  GLU171      0.0415
    145  CG       -11.1110   -6.7300  -19.7060 C.3   171  GLU171      0.1163
    146  CD       -12.5840   -6.4250  -19.9310 C.2   171  GLU171      0.3649
    147  OE1      -13.2660   -6.0280  -18.9490 O.co2 171  GLU171     -0.2457
    148  OE2      -13.0470   -6.5870  -21.0910 O.co2 171  GLU171     -0.2457
    149  N         -4.2870   -6.4590  -28.5860 N.3   190  ILE190     -0.1245
    150  CA        -3.8840   -5.9140  -27.3280 C.3   190  ILE190      0.1561
    151  C         -2.5450   -6.4190  -26.8420 C.2   190  ILE190      0.2260
    152  O         -1.8590   -5.7110  -26.1010 O.2   190  ILE190     -0.2867
    153  CB        -4.9080   -6.2030  -26.2690 C.3   190  ILE190      0.0252
    154  CG1       -6.2220   -5.4780  -26.5990 C.3   190  ILE190      0.0019
    155  CG2       -4.3210   -5.8450  -24.8980 C.3   190  ILE190      0.0019
    156  CD1       -7.3990   -5.9090  -25.7250 C.3   190  ILE190      0.0001
@<TRIPOS>BOND
     1   126   125    1
     2   125   124   ar
     3   125   123   ar
     4   124   122   ar
     5   123   121   ar
     6   149   150    1
     7   122   120   ar
     8   121   120   ar
     9   120   119    1
    10   119   116    1
    11   150   151    1
    12   150   153    1
    13   151   152    2
    14   154   153    1
    15   154   156    1
    16   153   155    1
    17   116   115    1
    18   116   117    1
    19   118   117    2
    20   117   127   am
    21   127   128    1
    22    92    90   ar
    23    92    91   ar
    24    23    21   ar
    25    90    88   ar
    26   130   129    2
    27   128   129    1
    28   128   131    1
    29    80    79    1
    30     7     6    1
    31    29    28    1
    32    29    30    1
    33     8     6    1
    34   114   113    2
    35    28    25    1
    36    91    89   ar
    37     6     5    1
    38   132   131    1
    39    21    22   ar
    40    21    20    1
    41    88    87   ar
    42    30    24    1
    43   113   112    1
    44    19    18    2
    45    25    24    1
    46    25    26    1
    47    79    78    1
    48    79    81    1
    49    89    87   ar
    50   101   100    1
    51    20    17    1
    52    78    75    1
    53    38    36    1
    54   105   104    2
    55   138   137    1
    56    27    26    2
    57    64    63    1
    58     5     2    1
    59    87    86    1
    60   139   137    1
    61     1     2    1
    62    18    17    1
    63   148   146   ar
    64     2     3    1
    65   112   111    1
    66    36    35    1
    67    49    51    1
    68    49    50    1
    69    49    46    1
    70    34    33    2
    71   104   111   am
    72   104   103    1
    73    17    16    1
    74   137   134    1
    75   133   134    1
    76   100    99    1
    77    63    60    1
    78    75    74    1
    79    75    76    1
    80    99    98    1
    81    82    76   am
    82    82    83    1
    83    86    83    1
    84    45    46    1
    85    45    41   am
    86   103   102    1
    87   103   106    1
    88   146   145    1
    89   146   147   ar
    90    76    77    2
    91    46    47    1
    92    58    56    1
    93    83    84    1
    94   134   135    1
    95    44    43    1
    96    73    71   ar
    97    33    39   am
    98    33    32    1
    99   145   144    1
   100    40    41    1
   101    40    43    1
   102    40    39    1
   103    56    57    1
   104    56    53    1
   105     3     4    2
   106     3     9   am
   107    35    32    1
   108    35    37    1
   109    15     9    1
   110    15    14    1
   111    41    42    2
   112    60    59    1
   113    60    61    1
   114   136   135    2
   115   135   140   am
   116    31    32    1
   117    59    54   am
   118     9    10    1
   119    98    97    1
   120   106   107    1
   121    97    94    1
   122    71    70    1
   123    71    72   ar
   124    47    48    2
   125    84    85    2
   126    54    53    1
   127    54    55    2
   128    53    52    1
   129   140   141    1
   130   144   141    1
   131    70    69    1
   132    61    62    2
   133    61    65   am
   134    14    13    1
   135   107   108    1
   136    12    11    2
   137   141   142    1
   138    10    11    1
   139    10    13    1
   140    65    66    1
   141    94    93    1
   142    94    95    1
   143    69    66    1
   144   108   110   am
   145   108   109    2
   146    66    67    1
   147   142   143    2
   148    95    96    2
   149    67    68    2
