@<TRIPOS>MOLECULE
tmp/2ksqA02.pdb
 134 129 0 0 0
SMALL
GASTEIGER

@<TRIPOS>ATOM
      1  N          7.1090    9.7140    1.3410 N.3    24  LEU24      -0.1231
      2  CA         7.4860   11.1070    1.5580 C.3    24  LEU24       0.1693
      3  C          6.3650   11.8690    2.2620 C.2    24  LEU24       0.2592
      4  O          5.2010   11.4750    2.2050 O.2    24  LEU24      -0.2718
      5  CB         7.8350   11.7750    0.2200 C.3    24  LEU24       0.0284
      6  CG         9.3100   12.1500    0.0470 C.3    24  LEU24       0.0019
      7  CD1       10.2000   10.9440    0.3000 C.3    24  LEU24       0.0001
      8  CD2        9.5570   12.7140   -1.3460 C.3    24  LEU24       0.0001
      9  N          6.7270   12.9640    2.9230 N.am   25  ASP25      -0.1960
     10  CA         5.7550   13.7860    3.6390 C.3    25  ASP25       0.1840
     11  C          4.9330   14.6680    2.6900 C.2    25  ASP25       0.2623
     12  O          4.0620   15.4150    3.1360 O.2    25  ASP25      -0.2715
     13  CB         6.4700   14.6610    4.6700 C.3    25  ASP25       0.1450
     14  CG         5.5040   15.4170    5.5600 C.2    25  ASP25       0.3671
     15  OD1        5.1090   16.5420    5.1880 O.co2  25  ASP25      -0.2456
     16  OD2        5.1420   14.8830    6.6300 O.co2  25  ASP25      -0.2456
     17  N          5.2140   14.5940    1.3860 N.am   26  GLY26      -0.1940
     18  CA         4.4810   15.4110    0.4290 C.3    26  GLY26       0.2014
     19  C          3.9090   14.6200   -0.7400 C.2    26  GLY26       0.2639
     20  O          3.3000   15.1990   -1.6390 O.2    26  GLY26      -0.2714
     21  N          4.1080   13.3030   -0.7450 N.am   27  ALA27      -0.1963
     22  CA         3.6080   12.4670   -1.8310 C.3    27  ALA27       0.1728
     23  C          2.0850   12.4880   -1.8960 C.2    27  ALA27       0.2617
     24  O          1.5000   12.7380   -2.9490 O.2    27  ALA27      -0.2715
     25  CB         4.1100   11.0400   -1.6710 C.3    27  ALA27       0.0334
     26  N          1.4480   12.2230   -0.7600 N.am   28  GLY28      -0.1940
     27  CA        -0.0040   12.2170   -0.7090 C.3    28  GLY28       0.2014
     28  C         -0.5740   10.8810   -0.2700 C.2    28  GLY28       0.2639
     29  O         -1.6540   10.4880   -0.7090 O.2    28  GLY28      -0.2714
     30  N          0.1520   10.1860    0.6020 N.am   29  LYS29      -0.1963
     31  CA        -0.2900    8.8880    1.1080 C.3    29  LYS29       0.1728
     32  C         -1.6590    9.0020    1.7740 C.2    29  LYS29       0.2617
     33  O         -2.4900    8.1010    1.6740 O.2    29  LYS29      -0.2715
     34  CB         0.7310    8.3360    2.1050 C.3    29  LYS29       0.0311
     35  CG         1.0400    9.2860    3.2530 C.3    29  LYS29       0.0038
     36  CD         2.2690    8.8430    4.0280 C.3    29  LYS29       0.0206
     37  CE         3.5370    9.4680    3.4710 C.3    29  LYS29       0.1093
     38  NZ         3.7040    9.1860    2.0180 N.3    29  LYS29      -0.1314
     39  N         -1.8750   10.1190    2.4600 N.am   30  THR30      -0.1937
     40  CA        -3.1370   10.3560    3.1520 C.3    30  THR30       0.2028
     41  C         -4.2740   10.6090    2.1630 C.2    30  THR30       0.2642
     42  O         -5.4100   10.1880    2.3880 O.2    30  THR30      -0.2714
     43  CB        -2.9960   11.5440    4.1070 C.3    30  THR30       0.1808
     44  OG1       -1.9530   11.3160    5.0370 O.3    30  THR30      -0.2208
     45  CG2       -4.2570   11.8370    4.8920 C.3    30  THR30       0.0379
     46  N         -3.9670   11.3100    1.0790 N.am   31  THR31      -0.1950
     47  CA        -4.9660   11.6360    0.0630 C.3    31  THR31       0.1897
     48  C         -5.5320   10.3840   -0.6070 C.2    31  THR31       0.2313
     49  O         -6.7470   10.2460   -0.7500 O.2    31  THR31      -0.2863
     50  CB        -4.3570   12.5560   -0.9960 C.3    31  THR31       0.1794
     51  OG1       -3.2590   13.2750   -0.4640 O.3    31  THR31      -0.2208
     52  CG2       -5.3420   13.5640   -1.5470 C.3    31  THR31       0.0378
     53  N         -6.6010   17.1550    3.2010 N.3    44  THR44      -0.1203
     54  CA        -5.4630   16.4220    3.7310 C.3    44  THR44       0.1994
     55  C         -4.4740   17.3610    4.4090 C.2    44  THR44       0.2618
     56  O         -4.3610   18.5320    4.0450 O.2    44  THR44      -0.2717
     57  CB        -4.7630   15.6510    2.6120 C.3    44  THR44       0.1784
     58  OG1       -5.7020   14.9070    1.8550 O.3    44  THR44      -0.2211
     59  CG2       -3.7120   14.6880    3.1140 C.3    44  THR44       0.0376
     60  N         -3.7600   16.8370    5.3970 N.am   45  ILE45      -0.1966
     61  CA        -2.7740   17.6140    6.1380 C.3    45  ILE45       0.1712
     62  C         -1.6130   16.7230    6.5820 C.2    45  ILE45       0.2458
     63  O         -1.7250   15.4970    6.5570 O.2    45  ILE45      -0.2730
     64  CB        -3.4030   18.2820    7.3760 C.3    45  ILE45       0.0289
     65  CG1       -4.2230   17.2660    8.1720 C.3    45  ILE45       0.0022
     66  CG2       -4.2690   19.4600    6.9590 C.3    45  ILE45       0.0023
     67  CD1       -4.4270   17.6560    9.6210 C.3    45  ILE45       0.0001
     68  N         -0.4730   17.3170    6.9970 N.am   46  PRO46      -0.2716
     69  CA         0.6920   16.5410    7.4370 C.3    46  PRO46       0.1536
     70  C          0.3600   15.6050    8.5950 C.2    46  PRO46       0.2599
     71  O          0.0300   16.0530    9.6930 O.2    46  PRO46      -0.2715
     72  CB         1.6930   17.6130    7.8830 C.3    46  PRO46       0.0310
     73  CG         1.2650   18.8570    7.1830 C.3    46  PRO46       0.0237
     74  CD        -0.2310   18.7680    7.0630 C.3    46  PRO46       0.0939
     75  N          0.4420   14.3030    8.3370 N.am   47  THR47      -0.1951
     76  CA         0.1410   13.3120    9.3650 C.3    47  THR47       0.1897
     77  C          1.3280   13.1050   10.3010 C.2    47  THR47       0.2313
     78  O          2.4060   12.6970    9.8690 O.2    47  THR47      -0.2863
     79  CB        -0.2500   11.9820    8.7200 C.3    47  THR47       0.1794
     80  OG1        0.6740   11.6250    7.7070 O.3    47  THR47      -0.2208
     81  CG2       -1.6290   12.0000    8.0970 C.3    47  THR47       0.0378
     82  N          3.3550    8.7630    8.8910 N.3    68  GLY68      -0.1210
     83  CA         4.0230    9.9490    8.3800 C.3    68  GLY68       0.1956
     84  C          5.2790    9.6180    7.5960 C.2    68  GLY68       0.2612
     85  O          6.0990    8.8120    8.0340 O.2    68  GLY68      -0.2717
     86  N          5.4240   10.2320    6.4300 N.am   69  GLY69      -0.1956
     87  CA         6.5870    9.9780    5.6040 C.3    69  GLY69       0.1869
     88  C          7.7590   10.8900    5.9260 C.2    69  GLY69       0.2309
     89  O          8.8560   10.6960    5.4040 O.2    69  GLY69      -0.2863
     90  N          1.7820    9.8190   -7.3760 N.3   125  ASN125     -0.1225
     91  CA         0.7200   10.7560   -7.0230 C.3   125  ASN125      0.1785
     92  C          0.8210   12.0460   -7.8370 C.2   125  ASN125      0.2597
     93  O          1.8150   12.2880   -8.5210 O.2   125  ASN125     -0.2718
     94  CB         0.7760   11.0780   -5.5280 C.3   125  ASN125      0.1169
     95  CG        -0.6030   11.1710   -4.9050 C.2   125  ASN125      0.2627
     96  OD1       -1.1780   10.1650   -4.4900 O.2   125  ASN125     -0.2716
     97  ND2       -1.1410   12.3820   -4.8370 N.am  125  ASN125     -0.0877
     98  N         -0.2210   12.8720   -7.7470 N.am  126  LYS126     -0.1980
     99  CA        -0.2690   14.1470   -8.4600 C.3   126  LYS126      0.1596
    100  C         -0.3010   13.9550   -9.9770 C.2   126  LYS126      0.2287
    101  O         -0.0070   14.8840  -10.7290 O.2   126  LYS126     -0.2864
    102  CB         0.9230   15.0240   -8.0640 C.3   126  LYS126      0.0298
    103  CG         0.6100   16.0090   -6.9510 C.3   126  LYS126      0.0038
    104  CD         1.7880   16.9290   -6.6690 C.3   126  LYS126      0.0206
    105  CE         1.3330   18.3560   -6.4130 C.3   126  LYS126      0.1093
    106  NZ         0.1810   18.4120   -5.4710 N.3   126  LYS126     -0.1314
    107  N         -2.7320   13.8570  -11.7860 N.3   128  ASP128     -0.1225
    108  CA        -3.7730   14.7310  -12.3150 C.3   128  ASP128      0.1805
    109  C         -3.2210   16.1040  -12.7070 C.2   128  ASP128      0.2597
    110  O         -3.8470   16.8290  -13.4810 O.2   128  ASP128     -0.2718
    111  CB        -4.8850   14.9040  -11.2780 C.3   128  ASP128      0.1424
    112  CG        -4.3860   15.5600  -10.0030 C.2   128  ASP128      0.3668
    113  OD1       -3.5080   14.9710   -9.3360 O.co2 128  ASP128     -0.2456
    114  OD2       -4.8730   16.6610   -9.6730 O.co2 128  ASP128     -0.2456
    115  N         -2.0540   16.4630  -12.1760 N.am  129  LEU129     -0.1979
    116  CA        -1.4440   17.7530  -12.4840 C.3   129  LEU129      0.1596
    117  C         -1.0640   17.8430  -13.9670 C.2   129  LEU129      0.2287
    118  O         -0.5210   16.8900  -14.5260 O.2   129  LEU129     -0.2864
    119  CB        -0.2030   17.9710  -11.6150 C.3   129  LEU129      0.0297
    120  CG        -0.4710   18.6080  -10.2520 C.3   129  LEU129      0.0022
    121  CD1       -0.9300   20.0490  -10.4170 C.3   129  LEU129      0.0001
    122  CD2       -1.5050   17.8010   -9.4830 C.3   129  LEU129      0.0001
    123  N         -5.1740   10.8740   -6.8460 N.3   159  ALA159     -0.1231
    124  CA        -5.9660   10.8230   -5.6250 C.3   159  ALA159      0.1694
    125  C         -7.0820   11.8570   -5.6330 C.2   159  ALA159      0.2592
    126  O         -8.1630   11.6130   -5.0990 O.2   159  ALA159     -0.2718
    127  CB        -5.0700   11.0230   -4.4130 C.3   159  ALA159      0.0304
    128  N         -6.8160   13.0160   -6.2340 N.am  160  THR160     -0.1953
    129  CA        -7.8250   14.0800   -6.2880 C.3   160  THR160      0.1897
    130  C         -9.1540   13.5520   -6.8340 C.2   160  THR160      0.2313
    131  O        -10.2260   13.9660   -6.3920 O.2   160  THR160     -0.2863
    132  CB        -7.3330   15.2360   -7.1590 C.3   160  THR160      0.1794
    133  OG1       -8.3500   16.2080   -7.3250 O.3   160  THR160     -0.2208
    134  CG2       -6.8870   14.7980   -8.5360 C.3   160  THR160      0.0378
@<TRIPOS>BOND
     1   118   117    2
     2   117   116    1
     3   110   109    2
     4   109   108    1
     5   109   115   am
     6   116   115    1
     7   116   119    1
     8   108   107    1
     9   108   111    1
    10   119   120    1
    11   111   112    1
    12   101   100    2
    13   121   120    1
    14   120   122    1
    15   112   114   ar
    16   112   113   ar
    17   100    99    1
    18   134   132    1
    19    93    92    2
    20    99   102    1
    21    99    98    1
    22   102   103    1
    23    92    98   am
    24    92    91    1
    25    90    91    1
    26   133   132    1
    27   132   129    1
    28    91    94    1
    29   103   104    1
    30   123   124    1
    31   130   131    2
    32   130   129    1
    33   104   105    1
    34   105   106    1
    35   129   128    1
    36   128   125   am
    37   125   124    1
    38   125   126    2
    39   124   127    1
    40    94    95    1
    41    95    97   am
    42    95    96    2
    43    24    23    2
    44    23    22    1
    45    23    26   am
    46    22    25    1
    47    22    21    1
    48    20    19    2
    49    52    50    1
    50     8     6    1
    51    50    51    1
    52    50    47    1
    53    26    27    1
    54    49    48    2
    55    21    19   am
    56    19    18    1
    57    27    28    1
    58    29    28    2
    59    48    47    1
    60    28    30   am
    61     6     5    1
    62     6     7    1
    63    47    46    1
    64     5     2    1
    65    18    17    1
    66    30    31    1
    67    46    41   am
    68    31    32    1
    69    31    34    1
    70     1     2    1
    71    17    11   am
    72     2     3    1
    73    33    32    2
    74    32    39   am
    75    58    57    1
    76    38    37    1
    77    34    35    1
    78    41    42    2
    79    41    40    1
    80     4     3    2
    81     3     9   am
    82    39    40    1
    83    57    59    1
    84    57    54    1
    85    11    12    2
    86    11    10    1
    87     9    10    1
    88    40    43    1
    89    53    54    1
    90    35    36    1
    91    37    36    1
    92    10    13    1
    93    54    55    1
    94    56    55    2
    95    43    45    1
    96    43    44    1
    97    55    60   am
    98    13    14    1
    99    15    14   ar
   100    60    61    1
   101    89    88    2
   102    14    16   ar
   103    87    88    1
   104    87    86    1
   105    61    62    1
   106    61    64    1
   107    86    84   am
   108    63    62    2
   109    62    68   am
   110    66    64    1
   111    68    74    1
   112    68    69    1
   113    74    73    1
   114    73    72    1
   115    64    65    1
   116    69    72    1
   117    69    70    1
   118    84    85    2
   119    84    83    1
   120    80    79    1
   121    81    79    1
   122    65    67    1
   123    75    70   am
   124    75    76    1
   125    83    82    1
   126    70    71    2
   127    79    76    1
   128    76    77    1
   129    78    77    2
