@<TRIPOS>MOLECULE
tmp/2ksyA00.pdb
 185 180 0 0 0
SMALL
GASTEIGER

@<TRIPOS>ATOM
      1  N         14.5240    0.0650   -6.1840 N.3    73  TYR73      -0.1241
      2  CA        13.9390    1.3990   -6.2230 C.3    73  TYR73       0.1605
      3  C         12.7440    1.4360   -7.1700 C.2    73  TYR73       0.2264
      4  O         11.7400    2.0920   -6.8890 O.2    73  TYR73      -0.2867
      5  CB        14.9930    2.4290   -6.6400 C.3    73  TYR73       0.0534
      6  CG        15.8320    2.9310   -5.4860 C.ar   73  TYR73      -0.0201
      7  CD1       15.3320    3.8810   -4.6050 C.ar   73  TYR73      -0.0009
      8  CD2       17.1200    2.4530   -5.2720 C.ar   73  TYR73      -0.0009
      9  CE1       16.0890    4.3440   -3.5460 C.ar   73  TYR73       0.0417
     10  CE2       17.8840    2.9120   -4.2140 C.ar   73  TYR73       0.0417
     11  CZ        17.3640    3.8560   -3.3550 C.ar   73  TYR73       0.1957
     12  OH        18.1200    4.3140   -2.3000 O.3    73  TYR73      -0.2866
     13  N          9.6240   -0.2010   -5.7580 N.3    76  TRP76      -0.1241
     14  CA         8.9190    0.7150   -4.8720 C.3    76  TRP76       0.1605
     15  C          8.0220    1.6440   -5.6790 C.2    76  TRP76       0.2264
     16  O          6.9040    1.9560   -5.2720 O.2    76  TRP76      -0.2867
     17  CB         9.9130    1.5380   -4.0520 C.3    76  TRP76       0.0550
     18  CG        10.7340    0.7250   -3.0950 C.ar   76  TRP76       0.0003
     19  CD1       10.6700   -0.6240   -2.8860 C.ar   76  TRP76       0.0946
     20  CD2       11.7480    1.2190   -2.2140 C.ar   76  TRP76       0.0152
     21  NE1       11.5820   -0.9960   -1.9280 N.ar   76  TRP76      -0.2442
     22  CE2       12.2550    0.1180   -1.5000 C.ar   76  TRP76       0.0810
     23  CE3       12.2750    2.4870   -1.9590 C.ar   76  TRP76       0.0012
     24  CZ2       13.2620    0.2480   -0.5500 C.ar   76  TRP76       0.0191
     25  CZ3       13.2750    2.6150   -1.0150 C.ar   76  TRP76       0.0001
     26  CH2       13.7600    1.5000   -0.3200 C.ar   76  TRP76       0.0015
     27  N          5.0840   -0.4240   -6.3400 N.3    79  THR79      -0.1203
     28  CA         4.3640   -0.8950   -5.1550 C.3    79  THR79       0.1994
     29  C          3.7890    0.2360   -4.3010 C.2    79  THR79       0.2618
     30  O          2.6070    0.2200   -3.9640 O.2    79  THR79      -0.2717
     31  CB         5.2730   -1.7600   -4.2630 C.3    79  THR79       0.1784
     32  OG1        6.4120   -1.0030   -3.8390 O.3    79  THR79      -0.2211
     33  CG2        5.7330   -3.0060   -5.0040 C.3    79  THR79       0.0376
     34  N          4.6270    1.2000   -3.9370 N.am   80  THR80      -0.1952
     35  CA         4.1910    2.3140   -3.0970 C.3    80  THR80       0.1897
     36  C          2.8760    2.9390   -3.5760 C.2    80  THR80       0.2313
     37  O          1.9250    3.0310   -2.7990 O.2    80  THR80      -0.2863
     38  CB         5.2680    3.4060   -2.9880 C.3    80  THR80       0.1794
     39  OG1        6.4700    2.8500   -2.4420 O.3    80  THR80      -0.2208
     40  CG2        4.7870    4.5490   -2.1070 C.3    80  THR80       0.0378
     41  N         -0.0030    0.7840   -2.8750 N.3    83  ILE83      -0.1245
     42  CA        -0.4510    0.7250   -1.4900 C.3    83  ILE83       0.1561
     43  C         -1.4140    1.8670   -1.2000 C.2    83  ILE83       0.2260
     44  O         -2.5190    1.6490   -0.7030 O.2    83  ILE83      -0.2867
     45  CB         0.7330    0.7990   -0.5050 C.3    83  ILE83       0.0252
     46  CG1        1.7600   -0.2950   -0.8150 C.3    83  ILE83       0.0019
     47  CG2        0.2400    0.6800    0.9310 C.3    83  ILE83       0.0019
     48  CD1        1.1920   -1.6980   -0.7790 C.3    83  ILE83       0.0001
     49  N          8.2080   11.3760   -4.9130 N.3   108  VAL108     -0.1231
     50  CA         8.8710   10.9170   -3.6970 C.3   108  VAL108      0.1692
     51  C          9.8310    9.7710   -4.0010 C.2   108  VAL108      0.2591
     52  O         11.0180    9.8320   -3.6680 O.2   108  VAL108     -0.2718
     53  CB         7.8440   10.4580   -2.6400 C.3   108  VAL108      0.0266
     54  CG1        8.5310    9.7290   -1.4940 C.3   108  VAL108      0.0020
     55  CG2        7.0530   11.6480   -2.1150 C.3   108  VAL108      0.0020
     56  N          9.3100    8.7260   -4.6360 N.am  109  MET109     -0.1979
     57  CA        10.1190    7.5680   -4.9870 C.3   109  MET109      0.1605
     58  C         11.2370    7.9710   -5.9390 C.2   109  MET109      0.2287
     59  O         12.2880    7.3300   -5.9860 O.2   109  MET109     -0.2864
     60  CB         9.2470    6.4830   -5.6190 C.3   109  MET109      0.0413
     61  CG         9.5860    5.0790   -5.1440 C.3   109  MET109      0.0598
     62  SD         9.5480    4.9210   -3.3450 S.3   109  MET109     -0.1393
     63  CE         7.8750    5.4480   -2.9860 C.3   109  MET109      0.0692
     64  N         12.8060   10.8260   -5.7620 N.3   111  ALA111     -0.1231
     65  CA        13.8010   11.5040   -4.9400 C.3   111  ALA111      0.1694
     66  C         14.8100   10.5010   -4.3980 C.2   111  ALA111      0.2592
     67  O         16.0200   10.6880   -4.5260 O.2   111  ALA111     -0.2718
     68  CB        13.1280   12.2460   -3.7960 C.3   111  ALA111      0.0304
     69  N         14.2970    9.4350   -3.7910 N.am  112  GLY112     -0.1957
     70  CA        15.1610    8.4040   -3.2420 C.3   112  GLY112      0.1869
     71  C         15.9910    7.7150   -4.3100 C.2   112  GLY112      0.2309
     72  O         17.1860    7.4850   -4.1200 O.2   112  GLY112     -0.2863
     73  N         16.6960   13.7920   -0.9000 N.3   127  PHE127     -0.1241
     74  CA        15.8790   13.2340    0.1630 C.3   127  PHE127      0.1605
     75  C         15.2200   14.3500    0.9580 C.2   127  PHE127      0.2264
     76  O         14.1430   14.1670    1.5210 O.2   127  PHE127     -0.2867
     77  CB        16.7160   12.3450    1.0840 C.3   127  PHE127      0.0534
     78  CG        15.9460   11.7980    2.2560 C.ar  127  PHE127     -0.0203
     79  CD1       14.6290   11.3820    2.1130 C.ar  127  PHE127     -0.0042
     80  CD2       16.5410   11.7020    3.5020 C.ar  127  PHE127     -0.0042
     81  CE1       13.9250   10.8860    3.1900 C.ar  127  PHE127     -0.0003
     82  CE2       15.8420   11.2050    4.5840 C.ar  127  PHE127     -0.0003
     83  CZ        14.5310   10.7970    4.4280 C.ar  127  PHE127     -0.0000
     84  N         12.2130   14.6270   -0.3060 N.3   130  GLY130     -0.1225
     85  CA        11.5750   13.3420   -0.0820 C.3   130  GLY130      0.1811
     86  C         10.9420   13.2540    1.2890 C.2   130  GLY130      0.2280
     87  O          9.9130   12.6010    1.4650 O.2   130  GLY130     -0.2866
     88  N          7.1760   13.3500    1.9780 N.3   134  PHE134     -0.1241
     89  CA         6.7260   12.1900    2.7250 C.3   134  PHE134      0.1605
     90  C          5.6240   12.5820    3.6990 C.2   134  PHE134      0.2264
     91  O          4.5610   11.9600    3.7340 O.2   134  PHE134     -0.2867
     92  CB         7.8860   11.5460    3.4820 C.3   134  PHE134      0.0534
     93  CG         7.4510   10.3930    4.3300 C.ar  134  PHE134     -0.0203
     94  CD1        6.9620    9.2380    3.7450 C.ar  134  PHE134     -0.0042
     95  CD2        7.5120   10.4700    5.7090 C.ar  134  PHE134     -0.0042
     96  CE1        6.5440    8.1780    4.5210 C.ar  134  PHE134     -0.0003
     97  CE2        7.0930    9.4170    6.4920 C.ar  134  PHE134     -0.0003
     98  CZ         6.6070    8.2680    5.8970 C.ar  134  PHE134     -0.0000
     99  N          2.2790   12.8930    2.2680 N.3   137  LEU137     -0.1245
    100  CA         1.5460   11.6530    2.0560 C.3   137  LEU137      0.1561
    101  C          0.9270   11.1520    3.3570 C.2   137  LEU137      0.2260
    102  O         -0.2640   10.8460    3.4030 O.2   137  LEU137     -0.2867
    103  CB         2.4590   10.5800    1.4610 C.3   137  LEU137      0.0270
    104  CG         1.7600    9.2710    1.0890 C.3   137  LEU137      0.0019
    105  CD1        0.5760    9.5370    0.1700 C.3   137  LEU137      0.0001
    106  CD2        2.7400    8.3130    0.4320 C.3   137  LEU137      0.0001
    107  N          5.9420    2.8170    7.5810 N.3   171  TRP171     -0.1241
    108  CA         6.3600    3.6250    6.4390 C.3   171  TRP171      0.1605
    109  C          7.1860    4.8110    6.9140 C.2   171  TRP171      0.2264
    110  O          8.1290    5.2340    6.2450 O.2   171  TRP171     -0.2867
    111  CB         5.1510    4.1280    5.6480 C.3   171  TRP171      0.0550
    112  CG         4.7870    3.2650    4.4760 C.ar  171  TRP171      0.0003
    113  CD1        5.0280    1.9270    4.3220 C.ar  171  TRP171      0.0946
    114  CD2        4.1090    3.6890    3.2860 C.ar  171  TRP171      0.0152
    115  NE1        4.5330    1.4960    3.1180 N.ar  171  TRP171     -0.2442
    116  CE2        3.9640    2.5570    2.4640 C.ar  171  TRP171      0.0810
    117  CE3        3.6050    4.9140    2.8390 C.ar  171  TRP171      0.0012
    118  CZ2        3.3370    2.6160    1.2220 C.ar  171  TRP171      0.0191
    119  CZ3        2.9840    4.9680    1.6060 C.ar  171  TRP171      0.0001
    120  CH2        2.8550    3.8260    0.8110 C.ar  171  TRP171      0.0015
    121  N         10.9400    4.3900    6.9900 N.3   174  TYR174     -0.1228
    122  CA        11.7510    4.4640    5.7740 C.3   174  TYR174      0.1721
    123  C         12.7620    5.6150    5.8240 C.2   174  TYR174      0.2437
    124  O         13.9450    5.3990    5.5660 O.2   174  TYR174     -0.2733
    125  CB        10.8570    4.6110    4.5410 C.3   174  TYR174      0.0547
    126  CG        10.4170    3.2930    3.9440 C.ar  174  TYR174     -0.0200
    127  CD1       11.2940    2.5280    3.1830 C.ar  174  TYR174     -0.0009
    128  CD2        9.1270    2.8150    4.1360 C.ar  174  TYR174     -0.0009
    129  CE1       10.8970    1.3240    2.6330 C.ar  174  TYR174      0.0417
    130  CE2        8.7220    1.6130    3.5890 C.ar  174  TYR174      0.0417
    131  CZ         9.6110    0.8720    2.8390 C.ar  174  TYR174      0.1957
    132  OH         9.2120   -0.3270    2.2920 O.3   174  TYR174     -0.2866
    133  N         12.3270    6.8540    6.1470 N.am  175  PRO175     -0.2729
    134  CA        13.2330    8.0050    6.2110 C.3   175  PRO175      0.1401
    135  C         14.4680    7.7250    7.0630 C.2   175  PRO175      0.2269
    136  O         15.5290    8.3100    6.8460 O.2   175  PRO175     -0.2865
    137  CB        12.3840    9.1200    6.8440 C.3   175  PRO175      0.0296
    138  CG        11.1360    8.4580    7.3280 C.3   175  PRO175      0.0237
    139  CD        10.9450    7.2430    6.4710 C.3   175  PRO175      0.0939
    140  N         16.7870    4.8150    5.0640 N.3   178  TRP178     -0.1241
    141  CA        17.4600    5.3710    3.8920 C.3   178  TRP178      0.1605
    142  C         18.5540    6.3460    4.3090 C.2   178  TRP178      0.2264
    143  O         19.6700    6.3020    3.7930 O.2   178  TRP178     -0.2867
    144  CB        16.4660    6.0880    2.9730 C.3   178  TRP178      0.0550
    145  CG        17.0720    6.5300    1.6710 C.ar  178  TRP178      0.0003
    146  CD1       17.0120    5.8690    0.4790 C.ar  178  TRP178      0.0946
    147  CD2       17.8330    7.7250    1.4260 C.ar  178  TRP178      0.0152
    148  NE1       17.6830    6.5750   -0.4900 N.ar  178  TRP178     -0.2442
    149  CE2       18.1950    7.7180    0.0660 C.ar  178  TRP178      0.0810
    150  CE3       18.2420    8.7990    2.2220 C.ar  178  TRP178      0.0012
    151  CZ2       18.9450    8.7410   -0.5120 C.ar  178  TRP178      0.0191
    152  CZ3       18.9840    9.8130    1.6490 C.ar  178  TRP178      0.0001
    153  CH2       19.3290    9.7790    0.2950 C.ar  178  TRP178      0.0015
    154  N         14.9390   -2.9550    5.4140 N.3   197  ILE197     -0.1245
    155  CA        14.3140   -2.4080    4.2150 C.3   197  ILE197      0.1561
    156  C         13.3410   -3.4010    3.5930 C.2   197  ILE197      0.2260
    157  O         12.1500   -3.1180    3.4700 O.2   197  ILE197     -0.2867
    158  CB        15.3840   -2.0000    3.1830 C.3   197  ILE197      0.0252
    159  CG1       16.0250   -0.6790    3.6120 C.3   197  ILE197      0.0019
    160  CG2       14.7900   -1.8910    1.7840 C.3   197  ILE197      0.0019
    161  CD1       15.0790    0.5050    3.5350 C.3   197  ILE197      0.0001
    162  N          8.9710   -3.3390    3.1750 N.3   201  ASP201     -0.1239
    163  CA         8.0870   -3.5700    2.0370 C.3   201  ASP201      0.1674
    164  C          7.2620   -4.8310    2.2640 C.2   201  ASP201      0.2266
    165  O          6.0790   -4.8920    1.9210 O.2   201  ASP201     -0.2867
    166  CB         8.9030   -3.7100    0.7500 C.3   201  ASP201      0.1410
    167  CG         9.9140   -2.5950    0.5750 C.2   201  ASP201      0.3668
    168  OD1       11.0420   -2.7300    1.0910 O.co2 201  ASP201     -0.2456
    169  OD2        9.5790   -1.5870   -0.0820 O.co2 201  ASP201     -0.2456
    170  N          4.4390   -4.0800    4.9070 N.3   204  THR204     -0.1203
    171  CA         3.3170   -3.3000    4.4070 C.3   204  THR204      0.1994
    172  C          2.3410   -4.1890    3.6480 C.2   204  THR204      0.2617
    173  O          1.1780   -4.3080    4.0210 O.2   204  THR204     -0.2717
    174  CB         3.7760   -2.1660    3.4680 C.3   204  THR204      0.1784
    175  OG1        4.5880   -1.2290    4.1840 O.3   204  THR204     -0.2211
    176  CG2        2.5760   -1.4460    2.8570 C.3   204  THR204      0.0376
    177  N          2.8390   -4.8440    2.6060 N.am  205  LYS205     -0.1979
    178  CA         2.0120   -5.7060    1.7670 C.3   205  LYS205      0.1596
    179  C          1.3940   -6.8660    2.5460 C.2   205  LYS205      0.2287
    180  O          0.1700   -7.0090    2.5950 O.2   205  LYS205     -0.2864
    181  CB         2.8460   -6.2510    0.6080 C.3   205  LYS205      0.0298
    182  CG         3.4490   -5.1640   -0.2660 C.3   205  LYS205      0.0038
    183  CD         4.4010   -5.7410   -1.2990 C.3   205  LYS205      0.0206
    184  CE         5.0330   -4.6470   -2.1430 C.3   205  LYS205      0.1093
    185  NZ         5.9920   -3.7980   -1.3900 N.3   205  LYS205     -0.1314
@<TRIPOS>BOND
     1     3     4    2
     2     3     2    1
     3     5     2    1
     4     5     6    1
     5    27    28    1
     6     2     1    1
     7    59    58    2
     8    58    57    1
     9    64    65    1
    10    13    14    1
    11    15    16    2
    12    15    14    1
    13    60    61    1
    14    60    57    1
    15     6     8   ar
    16     6     7   ar
    17     8    10   ar
    18    28    29    1
    19    28    31    1
    20    61    62    1
    21    33    31    1
    22    57    56    1
    23    65    66    1
    24    65    68    1
    25    49    50    1
    26    14    17    1
    27    56    51   am
    28     7     9   ar
    29    67    66    2
    30    66    69   am
    31    71    72    2
    32    71    70    1
    33    29    30    2
    34    29    34   am
    35    31    32    1
    36    10    11   ar
    37    17    18    1
    38    51    50    1
    39    51    52    2
    40    34    35    1
    41    69    70    1
    42    50    53    1
    43    36    35    1
    44    36    37    2
    45     9    11   ar
    46    11    12    1
    47    62    63    1
    48    35    38    1
    49    18    19   ar
    50    18    20   ar
    51    38    39    1
    52    38    40    1
    53    19    21   ar
    54    41    42    1
    55    53    55    1
    56    53    54    1
    57    20    23   ar
    58    20    22   ar
    59   184   185    1
    60   184   183    1
    61    23    25   ar
    62    21    22   ar
    63    22    24   ar
    64    42    43    1
    65    42    45    1
    66   183   182    1
    67    43    44    2
    68    25    26   ar
    69    73    74    1
    70    46    48    1
    71    46    45    1
    72    24    26   ar
    73   151   149   ar
    74   151   153   ar
    75    45    47    1
    76   148   149   ar
    77   148   146   ar
    78    84    85    1
    79   182   181    1
    80   169   167   ar
    81    85    86    1
    82   149   147   ar
    83    74    75    1
    84    74    77    1
    85   105   104    1
    86   153   152   ar
    87   106   104    1
    88   146   145   ar
    89   167   166    1
    90   167   168   ar
    91   181   178    1
    92   166   163    1
    93   120   118   ar
    94   120   119   ar
    95    75    76    2
    96    77    78    1
    97   104   103    1
    98   118   116   ar
    99    86    87    2
   100   147   145   ar
   101   147   150   ar
   102   103   100    1
   103   119   117   ar
   104   152   150   ar
   105   145   144    1
   106   178   179    1
   107   178   177    1
   108   160   158    1
   109   165   164    2
   110    88    89    1
   111   163   164    1
   112   163   162    1
   113   100    99    1
   114   100   101    1
   115    79    78   ar
   116    79    81   ar
   117    78    80   ar
   118   132   131    1
   119   116   115   ar
   120   116   114   ar
   121   179   180    2
   122   177   172   am
   123   129   131   ar
   124   129   127   ar
   125    89    92    1
   126    89    90    1
   127   131   130   ar
   128   117   114   ar
   129   176   174    1
   130   144   141    1
   131   115   113   ar
   132   158   159    1
   133   158   155    1
   134   127   126   ar
   135    81    83   ar
   136   114   112   ar
   137   101   102    2
   138   174   175    1
   139   174   171    1
   140   157   156    2
   141    92    93    1
   142    80    82   ar
   143   161   159    1
   144   130   128   ar
   145   156   155    1
   146   172   173    2
   147   172   171    1
   148    90    91    2
   149    94    93   ar
   150    94    96   ar
   151   143   142    2
   152   141   142    1
   153   141   140    1
   154   126   128   ar
   155   126   125    1
   156   155   154    1
   157   113   112   ar
   158    93    95   ar
   159   171   170    1
   160    83    82   ar
   161   112   111    1
   162    96    98   ar
   163   125   122    1
   164   124   123    2
   165   111   108    1
   166    95    97   ar
   167   122   123    1
   168   122   121    1
   169   123   133   am
   170    98    97   ar
   171   133   134    1
   172   133   139    1
   173   134   137    1
   174   134   135    1
   175   110   109    2
   176   108   109    1
   177   108   107    1
   178   139   138    1
   179   137   138    1
   180   136   135    2
