@<TRIPOS>MOLECULE
tmp/2kt4A00.pdb
 194 182 0 0 0
SMALL
GASTEIGER

@<TRIPOS>ATOM
      1  N         -0.0280    6.3430   -0.9260 N.3    15  VAL15      -0.1245
      2  CA         1.1630    5.7070   -0.3470 C.3    15  VAL15       0.1561
      3  C          2.3610    6.6200   -0.6440 C.2    15  VAL15       0.2260
      4  O          2.9690    6.6150   -1.7220 O.2    15  VAL15      -0.2867
      5  CB         1.3570    4.2830   -1.0090 C.3    15  VAL15       0.0252
      6  CG1        1.5090    4.3430   -2.5280 C.3    15  VAL15       0.0019
      7  CG2        2.5330    3.5630   -0.3780 C.3    15  VAL15       0.0019
      8  N          7.4550    3.3470    1.1480 N.3    18  LEU18      -0.1245
      9  CA         7.6080    2.0220    0.5670 C.3    18  LEU18       0.1561
     10  C          8.8150    1.2930    1.1440 C.2    18  LEU18       0.2260
     11  O          9.8010    1.9280    1.5300 O.2    18  LEU18      -0.2867
     12  CB         7.7430    2.1310   -0.9530 C.3    18  LEU18       0.0270
     13  CG         6.5860    2.8110   -1.6910 C.3    18  LEU18       0.0019
     14  CD1        7.0770    3.4450   -2.9820 C.3    18  LEU18       0.0001
     15  CD2        5.4740    1.8130   -1.9750 C.3    18  LEU18       0.0001
     16  N         13.3820   -4.2370   -6.5410 N.3    25  PHE25      -0.1241
     17  CA        12.2510   -3.3870   -6.1800 C.3    25  PHE25       0.1605
     18  C         12.7220   -2.0710   -5.5730 C.2    25  PHE25       0.2264
     19  O         12.2160   -1.0030   -5.9240 O.2    25  PHE25      -0.2867
     20  CB        11.2890   -4.1100   -5.2360 C.3    25  PHE25       0.0534
     21  CG        10.2810   -4.9620   -5.9510 C.ar   25  PHE25      -0.0203
     22  CD1        9.1860   -4.3850   -6.5740 C.ar   25  PHE25      -0.0042
     23  CD2       10.4250   -6.3370   -6.0020 C.ar   25  PHE25      -0.0042
     24  CE1        8.2560   -5.1630   -7.2350 C.ar   25  PHE25      -0.0003
     25  CE2        9.4980   -7.1240   -6.6610 C.ar   25  PHE25      -0.0003
     26  CZ         8.4120   -6.5340   -7.2770 C.ar   25  PHE25      -0.0000
     27  N         11.8190    1.1050   -7.3480 N.3    29  LYS29      -0.1245
     28  CA        10.9460    1.9850   -6.5790 C.3    29  LYS29       0.1561
     29  C         11.6410    3.2720   -6.1540 C.2    29  LYS29       0.2260
     30  O         11.0790    4.3520   -6.3230 O.2    29  LYS29      -0.2867
     31  CB        10.3220    1.2670   -5.3800 C.3    29  LYS29       0.0271
     32  CG         9.2660    0.2390   -5.7630 C.3    29  LYS29       0.0035
     33  CD         7.9530    0.4830   -5.0310 C.3    29  LYS29       0.0206
     34  CE         7.2490    1.7420   -5.5250 C.3    29  LYS29       0.1093
     35  NZ         6.7370    1.6010   -6.9190 N.3    29  LYS29      -0.1314
     36  N          3.0220    6.2790   -5.0610 N.3    35  ALA35      -0.1231
     37  CA         1.9600    5.4600   -5.6300 C.3    35  ALA35       0.1694
     38  C          0.6150    5.7870   -4.9830 C.2    35  ALA35       0.2591
     39  O          0.5170    6.6750   -4.1300 O.2    35  ALA35      -0.2718
     40  CB         2.2460    3.9790   -5.5220 C.3    35  ALA35       0.0304
     41  N         -0.4370    5.1460   -5.4750 N.am   36  MET36      -0.1979
     42  CA        -1.7840    5.3860   -4.9800 C.3    36  MET36       0.1605
     43  C         -2.4550    4.0760   -4.5590 C.2    36  MET36       0.2287
     44  O         -1.9490    2.9820   -4.8340 O.2    36  MET36      -0.2864
     45  CB        -2.6430    6.0180   -6.0830 C.3    36  MET36       0.0413
     46  CG        -2.1260    7.3560   -6.5800 C.3    36  MET36       0.0598
     47  SD        -2.6410    8.7350   -5.5390 S.3    36  MET36      -0.1393
     48  CE        -1.4320    9.9730   -6.0070 C.3    36  MET36       0.0692
     49  N         -5.1940    0.3900   -7.6080 N.3    51  TYR51      -0.1241
     50  CA        -3.8380    0.9040   -7.5060 C.3    51  TYR51       0.1605
     51  C         -3.5790    1.9410   -8.5800 C.2    51  TYR51       0.2264
     52  O         -4.0700    1.8140   -9.7040 O.2    51  TYR51      -0.2867
     53  CB        -2.8360   -0.2250   -7.7450 C.3    51  TYR51       0.0534
     54  CG        -2.6060   -1.1480   -6.5820 C.ar   51  TYR51      -0.0201
     55  CD1       -2.1120   -0.6750   -5.3760 C.ar   51  TYR51      -0.0009
     56  CD2       -2.8420   -2.5070   -6.7110 C.ar   51  TYR51      -0.0009
     57  CE1       -1.8510   -1.5350   -4.3310 C.ar   51  TYR51       0.0417
     58  CE2       -2.5990   -3.3700   -5.6680 C.ar   51  TYR51       0.0417
     59  CZ        -2.1000   -2.8810   -4.4830 C.ar   51  TYR51       0.1957
     60  OH        -1.7980   -3.7530   -3.4600 O.3    51  TYR51      -0.2866
     61  N         -0.1950    4.0390  -10.0570 N.3    53  VAL53      -0.1245
     62  CA         1.2340    4.3130  -10.0090 C.3    53  VAL53       0.1561
     63  C          1.7160    5.0050  -11.2800 C.2    53  VAL53       0.2260
     64  O          1.2970    4.6560  -12.3890 O.2    53  VAL53      -0.2867
     65  CB         2.0660    3.0330   -9.7740 C.3    53  VAL53       0.0252
     66  CG1        1.7620    2.4370   -8.4070 C.3    53  VAL53       0.0019
     67  CG2        1.8130    2.0110  -10.8740 C.3    53  VAL53       0.0019
     68  N          3.9500    5.3050  -14.0280 N.3    55  LYS55      -0.1245
     69  CA         4.8580    4.4870  -14.8110 C.3    55  LYS55       0.1561
     70  C          5.3690    5.2330  -16.0380 C.2    55  LYS55       0.2260
     71  O          4.6810    6.1420  -16.5140 O.2    55  LYS55      -0.2867
     72  CB         4.2390    3.1760  -15.2430 C.3    55  LYS55       0.0271
     73  CG         5.2320    2.1120  -15.6930 C.3    55  LYS55       0.0035
     74  CD         4.5130    0.9160  -16.2990 C.3    55  LYS55       0.0206
     75  CE         5.4890   -0.1840  -16.6920 C.3    55  LYS55       0.1093
     76  NZ         5.9800   -0.9510  -15.5130 N.3    55  LYS55      -0.1314
     77  N         -0.2360    4.2640  -14.3970 N.3    60  ARG60      -0.1245
     78  CA        -0.6680    2.8750  -14.4500 C.3    60  ARG60       0.1563
     79  C         -1.5270    2.5720  -13.2280 C.2    60  ARG60       0.2260
     80  O         -1.0780    2.6490  -12.0830 O.2    60  ARG60      -0.2867
     81  CB         0.5830    1.9660  -14.4750 C.3    60  ARG60       0.0307
     82  CG         0.2820    0.4820  -14.6180 C.3    60  ARG60       0.0489
     83  CD        -0.5150    0.1900  -15.8820 C.3    60  ARG60       0.2205
     84  NE        -1.9340   -0.0410  -15.5980 N.pl3  60  ARG60      -0.0865
     85  CZ        -2.8990   -0.0440  -16.5230 C.cat  60  ARG60       0.5346
     86  NH1       -2.6140    0.1810  -17.8060 N.pl3  60  ARG60       0.1354
     87  NH2       -4.1550   -0.2780  -16.1570 N.pl3  60  ARG60       0.1354
     88  N         -4.6100   -0.2420  -11.5000 N.3    62  TRP62      -0.1241
     89  CA        -5.0960   -1.6120  -11.5220 C.3    62  TRP62       0.1605
     90  C         -6.0070   -1.8460  -10.3250 C.2    62  TRP62       0.2264
     91  O         -5.6950   -1.4190   -9.2050 O.2    62  TRP62      -0.2867
     92  CB        -3.9210   -2.6090  -11.5590 C.3    62  TRP62       0.0550
     93  CG        -4.3350   -3.9910  -11.9650 C.ar   62  TRP62       0.0003
     94  CD1       -3.9830   -5.1650  -11.3650 C.ar   62  TRP62       0.0946
     95  CD2       -5.1920   -4.3420  -13.0590 C.ar   62  TRP62       0.0152
     96  NE1       -4.5640   -6.2240  -12.0190 N.ar   62  TRP62      -0.2442
     97  CE2       -5.3140   -5.7450  -13.0620 C.ar   62  TRP62       0.0810
     98  CE3       -5.8690   -3.6040  -14.0360 C.ar   62  TRP62       0.0012
     99  CZ2       -6.0850   -6.4240  -14.0020 C.ar   62  TRP62       0.0191
    100  CZ3       -6.6330   -4.2800  -14.9680 C.ar   62  TRP62       0.0001
    101  CH2       -6.7350   -5.6760  -14.9440 C.ar   62  TRP62       0.0015
    102  N         -7.7710   -4.8790   -8.0040 N.3    64  THR64      -0.1218
    103  CA        -7.7630   -6.2870   -7.6380 C.3    64  THR64       0.1862
    104  C         -8.7610   -6.5690   -6.5180 C.2    64  THR64       0.2287
    105  O         -9.1600   -5.6570   -5.7890 O.2    64  THR64      -0.2866
    106  CB        -6.3620   -6.7410   -7.1690 C.3    64  THR64       0.1770
    107  OG1       -5.3410   -6.0640   -7.9240 O.3    64  THR64      -0.2211
    108  CG2       -6.2040   -8.2440   -7.3460 C.3    64  THR64       0.0375
    109  N         -9.7380   -8.9600   -3.1740 N.3    66  PHE66      -0.1241
    110  CA        -9.1460   -9.8090   -2.1460 C.3    66  PHE66       0.1605
    111  C        -10.2190  -10.3850   -1.2250 C.2    66  PHE66       0.2264
    112  O        -11.3910  -10.0010   -1.3050 O.2    66  PHE66      -0.2867
    113  CB        -8.1250   -9.0230   -1.3140 C.3    66  PHE66       0.0534
    114  CG        -7.1170   -8.2460   -2.1200 C.ar   66  PHE66      -0.0203
    115  CD1       -6.5740   -8.7720   -3.2810 C.ar   66  PHE66      -0.0042
    116  CD2       -6.7120   -6.9880   -1.7100 C.ar   66  PHE66      -0.0042
    117  CE1       -5.6480   -8.0600   -4.0170 C.ar   66  PHE66      -0.0003
    118  CE2       -5.7860   -6.2690   -2.4400 C.ar   66  PHE66      -0.0003
    119  CZ        -5.2520   -6.8050   -3.5960 C.ar   66  PHE66      -0.0000
    120  N         -0.9570  -12.4010   -2.5450 N.3    83  LYS83      -0.1231
    121  CA        -0.5870  -11.1720   -1.8560 C.3    83  LYS83       0.1693
    122  C         -1.3370  -11.0210   -0.5340 C.2    83  LYS83       0.2592
    123  O         -2.5600  -11.1920   -0.4790 O.2    83  LYS83      -0.2718
    124  CB        -0.8620   -9.9490   -2.7400 C.3    83  LYS83       0.0285
    125  CG         0.1320   -9.7490   -3.8750 C.3    83  LYS83       0.0035
    126  CD        -0.4370  -10.1930   -5.2160 C.3    83  LYS83       0.0206
    127  CE        -1.5810   -9.2960   -5.6760 C.3    83  LYS83       0.1093
    128  NZ        -1.4630   -8.9170   -7.1170 N.3    83  LYS83      -0.1314
    129  N         -0.6010  -10.7160    0.5220 N.am   84  LYS84      -0.1966
    130  CA        -1.1830  -10.5080    1.8380 C.3    84  LYS84       0.1728
    131  C         -0.8920   -9.0890    2.3210 C.2    84  LYS84       0.2616
    132  O          0.2060   -8.5600    2.0900 O.2    84  LYS84      -0.2715
    133  CB        -0.6220  -11.5240    2.8390 C.3    84  LYS84       0.0311
    134  CG        -1.0780  -11.2910    4.2700 C.3    84  LYS84       0.0038
    135  CD        -0.1260  -11.9230    5.2710 C.3    84  LYS84       0.0206
    136  CE        -0.4290  -11.4430    6.6820 C.3    84  LYS84       0.1093
    137  NZ         0.4900  -12.0340    7.6870 N.3    84  LYS84      -0.1314
    138  N         -1.8710   -8.4820    2.9990 N.am   85  VAL85      -0.1977
    139  CA        -1.6730   -7.1360    3.5380 C.3    85  VAL85       0.1596
    140  C         -2.2010   -7.0940    4.9710 C.2    85  VAL85       0.2287
    141  O         -3.3370   -7.4840    5.2550 O.2    85  VAL85      -0.2864
    142  CB        -2.4360   -6.0860    2.6680 C.3    85  VAL85       0.0276
    143  CG1       -1.7710   -5.9440    1.3070 C.3    85  VAL85       0.0022
    144  CG2       -3.9090   -6.4510    2.5070 C.3    85  VAL85       0.0022
    145  N          2.8090   -5.5490    4.0630 N.3   100  ALA100     -0.1231
    146  CA         2.3500   -6.4090    2.9870 C.3   100  ALA100      0.1694
    147  C          3.3690   -7.4870    2.6460 C.2   100  ALA100      0.2593
    148  O          4.5810   -7.2530    2.7070 O.2   100  ALA100     -0.2718
    149  CB         1.9980   -5.5850    1.7650 C.3   100  ALA100      0.0304
    150  N          2.8700   -8.6530    2.2730 N.am  101  THR101     -0.1939
    151  CA         3.7170   -9.7750    1.9050 C.3   101  THR101      0.2028
    152  C          3.0760  -10.5710    0.7720 C.2   101  THR101      0.2642
    153  O          1.8570  -10.7250    0.7250 O.2   101  THR101     -0.2714
    154  CB         3.9600  -10.7070    3.1120 C.3   101  THR101      0.1808
    155  OG1        4.6330   -9.9840    4.1570 O.3   101  THR101     -0.2208
    156  CG2        4.8050  -11.9090    2.7100 C.3   101  THR101      0.0379
    157  N          3.8960  -11.0550   -0.1450 N.am  102  ARG102     -0.1977
    158  CA         3.4130  -11.8470   -1.2650 C.3   102  ARG102      0.1597
    159  C          4.3150  -13.0570   -1.4370 C.2   102  ARG102      0.2287
    160  O          5.5430  -12.9200   -1.4130 O.2   102  ARG102     -0.2864
    161  CB         3.4010  -11.0080   -2.5460 C.3   102  ARG102      0.0334
    162  CG         4.6860  -11.0790   -3.3640 C.3   102  ARG102      0.0492
    163  CD         4.5910  -10.2380   -4.6260 C.3   102  ARG102      0.2205
    164  NE         3.3190  -10.4250   -5.3210 N.pl3 102  ARG102     -0.0865
    165  CZ         3.2350  -10.7470   -6.6240 C.cat 102  ARG102      0.5346
    166  NH1        4.2910  -10.6100   -7.4180 N.pl3 102  ARG102      0.1354
    167  NH2        2.0860  -11.2000   -7.1320 N.pl3 102  ARG102      0.1354
    168  N          7.9940  -12.8270   -0.6490 N.3   109  LEU109     -0.1245
    169  CA         8.3830  -11.4300   -0.7520 C.3   109  LEU109      0.1561
    170  C          7.5940  -10.5770    0.2330 C.2   109  LEU109      0.2260
    171  O          6.3810  -10.7470    0.3870 O.2   109  LEU109     -0.2867
    172  CB         8.1900  -10.9250   -2.1880 C.3   109  LEU109      0.0270
    173  CG         8.5440   -9.4580   -2.4450 C.3   109  LEU109      0.0019
    174  CD1       10.0160   -9.1980   -2.1650 C.3   109  LEU109      0.0001
    175  CD2        8.1880   -9.0620   -3.8700 C.3   109  LEU109      0.0001
    176  N          6.7350   -6.4760    1.5680 N.3   111  MET111     -0.1245
    177  CA         6.7580   -5.0900    1.1180 C.3   111  MET111      0.1570
    178  C          6.0330   -4.2500    2.1620 C.2   111  MET111      0.2261
    179  O          4.7950   -4.2210    2.2100 O.2   111  MET111     -0.2867
    180  CB         6.0310   -5.0030   -0.2470 C.3   111  MET111      0.0387
    181  CG         6.9210   -5.2430   -1.4560 C.3   111  MET111      0.0595
    182  SD         6.0510   -4.9880   -3.0200 S.3   111  MET111     -0.1393
    183  CE         7.3490   -5.4260   -4.1760 C.3   111  MET111      0.0692
    184  N          4.7170   -0.5760    3.6000 N.3   113  ARG113     -0.1245
    185  CA         4.1990    0.6430    2.9950 C.3   113  ARG113      0.1563
    186  C          3.5460    1.5640    4.0180 C.2   113  ARG113      0.2260
    187  O          3.0320    1.1170    5.0460 O.2   113  ARG113     -0.2867
    188  CB         3.2020    0.3020    1.8800 C.3   113  ARG113      0.0307
    189  CG         3.6980    0.6230    0.4770 C.3   113  ARG113      0.0489
    190  CD         3.8000   -0.6280   -0.3870 C.3   113  ARG113      0.2205
    191  NE         2.5280   -1.3600   -0.4580 N.pl3 113  ARG113     -0.0865
    192  CZ         2.4180   -2.6860   -0.3080 C.cat 113  ARG113      0.5346
    193  NH1        3.5090   -3.4250   -0.1360 N.pl3 113  ARG113      0.1354
    194  NH2        1.2130   -3.2570   -0.2880 N.pl3 113  ARG113      0.1354
@<TRIPOS>BOND
     1    86    85    1
     2    75    74    1
     3    75    76    1
     4    85    87    1
     5    85    84    2
     6    71    70    2
     7    74    73    1
     8    70    69    1
     9    83    84    1
    10    83    82    1
    11    73    72    1
    12    72    69    1
    13   100   101   ar
    14   100    98   ar
    15   101    99   ar
    16    69    68    1
    17    82    81    1
    18    81    78    1
    19    78    77    1
    20    78    79    1
    21    98    95   ar
    22    99    97   ar
    23    79    80    2
    24    97    95   ar
    25    97    96   ar
    26    95    93   ar
    27    64    63    2
    28    96    94   ar
    29    93    92    1
    30    93    94   ar
    31    92    89    1
    32    89    88    1
    33    89    90    1
    34    63    62    1
    35    67    65    1
    36    90    91    2
    37    61    62    1
    38    62    65    1
    39    65    66    1
    40    52    51    2
    41    51    50    1
    42   102   103    1
    43   107   106    1
    44    53    50    1
    45    53    54    1
    46   103   106    1
    47   103   104    1
    48    49    50    1
    49   166   165    1
    50    27    28    1
    51   108   106    1
    52    26    24   ar
    53    26    25   ar
    54    24    22   ar
    55   167   165    1
    56   128   127    1
    57    35    34    1
    58    56    54   ar
    59    56    58   ar
    60    25    23   ar
    61   165   164    2
    62    54    55   ar
    63    46    45    1
    64    46    47    1
    65    28    29    1
    66    28    31    1
    67    22    21   ar
    68    16    17    1
    69   104   105    2
    70    30    29    2
    71    17    18    1
    72    17    20    1
    73    45    42    1
    74    48    47    1
    75    23    21   ar
    76    21    20    1
    77    19    18    2
    78    32    31    1
    79    32    33    1
    80   127   126    1
    81    58    59   ar
    82    37    40    1
    83    37    36    1
    84    37    38    1
    85    34    33    1
    86    41    38   am
    87    41    42    1
    88    55    57   ar
    89   164   163    1
    90   126   125    1
    91    38    39    2
    92    42    43    1
    93    44    43    2
    94   163   162    1
    95    59    57   ar
    96    59    60    1
    97   183   182    1
    98   117   119   ar
    99   117   115   ar
   100   125   124    1
   101   175   173    1
   102   119   118   ar
   103   162   161    1
   104   115   114   ar
   105   109   110    1
   106   182   181    1
   107    14    13    1
   108   124   121    1
   109   161   158    1
   110   120   121    1
   111     6     5    1
   112   173   172    1
   113   173   174    1
   114   118   116   ar
   115   172   169    1
   116   110   113    1
   117   110   111    1
   118   114   116   ar
   119   114   113    1
   120    15    13    1
   121   121   122    1
   122     4     3    2
   123    13    12    1
   124   181   180    1
   125   159   160    2
   126   159   158    1
   127   112   111    2
   128   158   157    1
   129     5     7    1
   130     5     2    1
   131    12     9    1
   132     1     2    1
   133   169   168    1
   134   169   170    1
   135     3     2    1
   136   122   123    2
   137   122   129   am
   138   191   190    1
   139   191   192    2
   140   190   189    1
   141   192   194    1
   142   192   193    1
   143   180   177    1
   144   157   152   am
   145   170   171    2
   146   189   188    1
   147   129   130    1
   148     9    10    1
   149     9     8    1
   150   153   152    2
   151   152   151    1
   152   177   176    1
   153   177   178    1
   154    10    11    2
   155   143   142    1
   156   149   146    1
   157   130   131    1
   158   130   133    1
   159   188   185    1
   160   151   150    1
   161   151   154    1
   162   132   131    2
   163   178   179    2
   164   150   147   am
   165   131   138   am
   166   144   142    1
   167   147   148    2
   168   147   146    1
   169   142   139    1
   170   156   154    1
   171   133   134    1
   172   146   145    1
   173   185   184    1
   174   185   186    1
   175   138   139    1
   176   154   155    1
   177   139   140    1
   178   186   187    2
   179   134   135    1
   180   140   141    2
   181   135   136    1
   182   136   137    1
