@<TRIPOS>MOLECULE
tmp/2ktdA00.pdb
 211 198 0 0 0
SMALL
GASTEIGER

@<TRIPOS>ATOM
      1  N          1.3960   -4.5040   -7.3000 N.3    23  SER23      -0.1217
      2  CA         0.9720   -3.4240   -8.1840 C.3    23  SER23       0.1889
      3  C          1.7240   -3.4800   -9.5080 C.2    23  SER23       0.2288
      4  O          2.9520   -3.5840   -9.5360 O.2    23  SER23      -0.2866
      5  CB         1.1960   -2.0720   -7.5120 C.3    23  SER23       0.2089
      6  OG         0.7120   -1.0160   -8.3200 O.3    23  SER23      -0.2183
      7  N         -0.4160   -2.4080  -12.8480 N.3    25  GLY25      -0.1210
      8  CA        -1.1440   -1.4920  -13.7000 C.3    25  GLY25       0.1956
      9  C         -2.4240   -0.9920  -13.0640 C.2    25  GLY25       0.2611
     10  O         -3.0920   -1.7240  -12.3320 O.2    25  GLY25      -0.2717
     11  N         -2.7760    0.2600  -13.3440 N.am   26  LEU26      -0.1979
     12  CA        -3.9880    0.8560  -12.7960 C.3    26  LEU26       0.1596
     13  C         -4.5080    1.9600  -13.7120 C.2    26  LEU26       0.2287
     14  O         -3.7600    2.5040  -14.5240 O.2    26  LEU26      -0.2864
     15  CB        -3.7240    1.4120  -11.3960 C.3    26  LEU26       0.0297
     16  CG        -4.9520    1.4640  -10.4840 C.3    26  LEU26       0.0022
     17  CD1       -4.9960    0.2400   -9.5760 C.3    26  LEU26       0.0001
     18  CD2       -4.9480    2.7440   -9.6600 C.3    26  LEU26       0.0001
     19  N        -10.6200   12.4120   -9.4080 N.3    33  PHE33      -0.1241
     20  CA        -9.7680   11.3720   -8.8400 C.3    33  PHE33       0.1605
     21  C         -8.3920   11.3680   -9.5080 C.2    33  PHE33       0.2264
     22  O         -7.3840   11.0880   -8.8640 O.2    33  PHE33      -0.2867
     23  CB       -10.4200   10.0000   -8.9920 C.3    33  PHE33       0.0534
     24  CG       -10.0760    9.0480   -7.8880 C.ar   33  PHE33      -0.0203
     25  CD1       -8.7640    8.6280   -7.7040 C.ar   33  PHE33      -0.0042
     26  CD2      -11.0520    8.5680   -7.0320 C.ar   33  PHE33      -0.0042
     27  CE1       -8.4400    7.7520   -6.6840 C.ar   33  PHE33      -0.0003
     28  CE2      -10.7320    7.6880   -6.0120 C.ar   33  PHE33      -0.0003
     29  CZ        -9.4240    7.2800   -5.8400 C.ar   33  PHE33      -0.0000
     30  N         -5.5280   12.9880   -7.9640 N.3    36  LYS36      -0.1231
     31  CA        -4.8920   12.2920   -6.8480 C.3    36  LYS36       0.1693
     32  C         -4.2040   11.0120   -7.3080 C.2    36  LYS36       0.2591
     33  O         -3.3440   10.4760   -6.6160 O.2    36  LYS36      -0.2718
     34  CB        -5.9320   11.9720   -5.7680 C.3    36  LYS36       0.0285
     35  CG        -5.4360   12.2400   -4.3560 C.3    36  LYS36       0.0035
     36  CD        -5.2080   13.7240   -4.1160 C.3    36  LYS36       0.0206
     37  CE        -3.7360   14.0880   -4.2080 C.3    36  LYS36       0.1093
     38  NZ        -3.3760   15.1840   -3.2680 N.3    36  LYS36      -0.1314
     39  N         -4.5920   10.5160   -8.4800 N.am   37  LYS37      -0.1980
     40  CA        -4.0040    9.2960   -9.0200 C.3    37  LYS37       0.1596
     41  C         -2.5240    9.4880   -9.3360 C.2    37  LYS37       0.2287
     42  O         -1.7400    8.5400   -9.3120 O.2    37  LYS37      -0.2864
     43  CB        -4.7400    8.8480  -10.2760 C.3    37  LYS37       0.0298
     44  CG        -5.9560    7.9800   -9.9920 C.3    37  LYS37       0.0038
     45  CD        -5.6320    6.5040  -10.1600 C.3    37  LYS37       0.0206
     46  CE        -6.7880    5.6240   -9.7080 C.3    37  LYS37       0.1093
     47  NZ        -6.6880    5.2680   -8.2680 N.3    37  LYS37      -0.1314
     48  N         -0.1880    8.3480   -6.3880 N.3    40  LEU40      -0.1231
     49  CA        -0.2200    6.9960   -5.8360 C.3    40  LEU40       0.1693
     50  C          0.6960    6.0760   -6.6320 C.2    40  LEU40       0.2592
     51  O          0.3560    5.6240   -7.7240 O.2    40  LEU40      -0.2718
     52  CB        -1.6440    6.4320   -5.8080 C.3    40  LEU40       0.0284
     53  CG        -2.5200    6.8000   -7.0000 C.3    40  LEU40       0.0019
     54  CD1       -2.3160    5.8120   -8.1400 C.3    40  LEU40       0.0001
     55  CD2       -3.9800    6.8440   -6.5800 C.3    40  LEU40       0.0001
     56  N          1.8640    5.8120   -6.0680 N.am   41  TYR41      -0.1976
     57  CA         2.8560    4.9600   -6.7080 C.3    41  TYR41       0.1639
     58  C          2.7280    3.5080   -6.2520 C.2    41  TYR41       0.2290
     59  O          1.7400    3.1280   -5.6240 O.2    41  TYR41      -0.2864
     60  CB         4.2600    5.4840   -6.4120 C.3    41  TYR41       0.0560
     61  CG         4.4440    6.9400   -6.7720 C.ar   41  TYR41      -0.0198
     62  CD1        3.9160    7.9480   -5.9760 C.ar   41  TYR41      -0.0009
     63  CD2        5.1440    7.3080   -7.9160 C.ar   41  TYR41      -0.0009
     64  CE1        4.0760    9.2800   -6.3080 C.ar   41  TYR41       0.0417
     65  CE2        5.3080    8.6400   -8.2520 C.ar   41  TYR41       0.0417
     66  CZ         4.7720    9.6200   -7.4480 C.ar   41  TYR41       0.1957
     67  OH         4.9360   10.9440   -7.7800 O.3    41  TYR41      -0.2866
     68  N          2.9920   -0.1280   -4.4080 N.3    43  CYS43      -0.1235
     69  CA         2.6760   -0.4840   -3.0280 C.3    43  CYS43       0.1677
     70  C          2.3000   -1.9640   -2.9360 C.2    43  CYS43       0.2270
     71  O          2.6160   -2.7480   -3.8280 O.2    43  CYS43      -0.2867
     72  CB         1.5400    0.3960   -2.4960 C.3    43  CYS43       0.0956
     73  SG        -0.1120   -0.1000   -3.0480 S.3    43  CYS43      -0.0801
     74  N         -0.8760   -4.8240   -2.2760 N.3    45  THR45      -0.1218
     75  CA        -2.3200   -5.0120   -2.3000 C.3    45  THR45       0.1862
     76  C         -2.6720   -6.4920   -2.1800 C.2    45  THR45       0.2287
     77  O         -2.2120   -7.3160   -2.9680 O.2    45  THR45      -0.2866
     78  CB        -2.9120   -4.4320   -3.5880 C.3    45  THR45       0.1770
     79  OG1       -2.4520   -3.1080   -3.7960 O.3    45  THR45      -0.2211
     80  CG2       -4.4240   -4.3920   -3.5880 C.3    45  THR45       0.0375
     81  N        -10.2000   -6.4120    0.1320 N.3    57  LEU57      -0.1245
     82  CA        -8.9320   -5.9880   -0.4440 C.3    57  LEU57       0.1561
     83  C         -8.2760   -4.9120    0.4120 C.2    57  LEU57       0.2260
     84  O         -8.7680   -3.7840    0.4920 O.2    57  LEU57      -0.2867
     85  CB        -9.1440   -5.4800   -1.8720 C.3    57  LEU57       0.0270
     86  CG        -7.8640   -5.1480   -2.6520 C.3    57  LEU57       0.0019
     87  CD1       -6.7320   -6.0960   -2.2840 C.3    57  LEU57       0.0001
     88  CD2       -8.1360   -5.2000   -4.1440 C.3    57  LEU57       0.0001
     89  N         -5.2200   -2.4000    1.1480 N.3    59  SER59      -0.1217
     90  CA        -4.1240   -1.6920    0.5000 C.3    59  SER59       0.1889
     91  C         -3.1680   -1.1400    1.5480 C.2    59  SER59       0.2288
     92  O         -3.5760   -0.8360    2.6720 O.2    59  SER59      -0.2866
     93  CB        -4.6640   -0.5560   -0.3720 C.3    59  SER59       0.2089
     94  OG        -4.9000   -0.9960   -1.6960 O.3    59  SER59      -0.2183
     95  N          0.7240    1.2360    1.7080 N.3    61  PHE61      -0.1241
     96  CA         1.9000    1.8520    1.1120 C.3    61  PHE61       0.1605
     97  C          2.6400    2.6760    2.1640 C.2    61  PHE61       0.2264
     98  O          2.0760    3.6040    2.7400 O.2    61  PHE61      -0.2867
     99  CB         1.4960    2.7400   -0.0720 C.3    61  PHE61       0.0534
    100  CG         2.6600    3.2920   -0.8520 C.ar   61  PHE61      -0.0203
    101  CD1        3.8200    2.5480   -1.0200 C.ar   61  PHE61      -0.0042
    102  CD2        2.5920    4.5520   -1.4160 C.ar   61  PHE61      -0.0042
    103  CE1        4.8840    3.0560   -1.7400 C.ar   61  PHE61      -0.0003
    104  CE2        3.6520    5.0640   -2.1360 C.ar   61  PHE61      -0.0003
    105  CZ         4.8000    4.3160   -2.3000 C.ar   61  PHE61      -0.0000
    106  N          3.7760    9.3800   -0.4920 N.3    66  GLN66      -0.1245
    107  CA         2.6280    9.2640    0.4040 C.3    66  GLN66       0.1566
    108  C          2.4800    7.8480    0.9520 C.2    66  GLN66       0.2260
    109  O          2.6880    6.8640    0.2440 O.2    66  GLN66      -0.2867
    110  CB         1.3480    9.6600   -0.3320 C.3    66  GLN66       0.0367
    111  CG         0.9720   11.1240   -0.1600 C.3    66  GLN66       0.0905
    112  CD        -0.0920   11.5680   -1.1440 C.2    66  GLN66       0.2608
    113  OE1       -0.0360   12.6760   -1.6800 O.2    66  GLN66      -0.2717
    114  NE2       -1.0720   10.7040   -1.3920 N.am   66  GLN66      -0.0878
    115  N         -0.0280    5.0440    2.4480 N.3    68  GLU68      -0.1245
    116  CA        -1.4400    4.6600    2.4840 C.3    68  GLU68       0.1567
    117  C         -1.6560    3.3840    3.2920 C.2    68  GLU68       0.2260
    118  O         -0.7440    2.5760    3.4680 O.2    68  GLU68      -0.2867
    119  CB        -1.9720    4.4680    1.0640 C.3    68  GLU68       0.0388
    120  CG        -2.7920    5.6480    0.5640 C.3    68  GLU68       0.1160
    121  CD        -3.9480    5.9840    1.4840 C.2    68  GLU68       0.3649
    122  OE1       -4.7800    5.0920    1.7440 O.co2  68  GLU68      -0.2457
    123  OE2       -4.0160    7.1440    1.9480 O.co2  68  GLU68      -0.2457
    124  N        -10.9440   -2.4040    1.4320 N.3    72  MET72      -0.1245
    125  CA       -12.3160   -2.4040    0.9400 C.3    72  MET72       0.1570
    126  C        -12.8960   -3.8160    0.9360 C.2    72  MET72       0.2261
    127  O        -12.1600   -4.8000    0.8440 O.2    72  MET72      -0.2867
    128  CB       -12.3640   -1.8080   -0.4680 C.3    72  MET72       0.0387
    129  CG       -11.9440   -2.7680   -1.5680 C.3    72  MET72       0.0595
    130  SD       -11.2200   -1.9320   -2.9920 S.3    72  MET72      -0.1393
    131  CE       -11.6240   -3.0800   -4.3040 C.3    72  MET72       0.0692
    132  N        -18.2880   -2.9280   -3.6400 N.3    85  TYR85      -0.1241
    133  CA       -17.5200   -2.7720   -2.4160 C.3    85  TYR85       0.1605
    134  C        -17.6400   -1.3600   -1.8760 C.2    85  TYR85       0.2264
    135  O        -17.3080   -0.3920   -2.5520 O.2    85  TYR85      -0.2867
    136  CB       -16.0440   -3.1320   -2.6480 C.3    85  TYR85       0.0534
    137  CG       -15.2680   -2.1120   -3.4480 C.ar   85  TYR85      -0.0201
    138  CD1      -14.7160   -0.9960   -2.8360 C.ar   85  TYR85      -0.0009
    139  CD2      -15.0800   -2.2640   -4.8160 C.ar   85  TYR85      -0.0009
    140  CE1      -14.0000   -0.0600   -3.5600 C.ar   85  TYR85       0.0417
    141  CE2      -14.3680   -1.3400   -5.5480 C.ar   85  TYR85       0.0417
    142  CZ       -13.8280   -0.2400   -4.9160 C.ar   85  TYR85       0.1957
    143  OH       -13.1160    0.6840   -5.6480 O.3    85  TYR85      -0.2866
    144  N        -16.9680    1.8720   -0.9240 N.3    87  SER87      -0.1203
    145  CA       -15.7840    2.7120   -1.0960 C.3    87  SER87       0.2005
    146  C        -15.9960    4.0480   -0.3840 C.2    87  SER87       0.2460
    147  O        -16.9600    4.2000    0.3560 O.2    87  SER87      -0.2732
    148  CB       -15.5120    2.9200   -2.5880 C.3    87  SER87       0.2103
    149  OG       -16.1480    4.0920   -3.0720 O.3    87  SER87      -0.2182
    150  N        -15.1160    5.0480   -0.5720 N.am   88  PRO88      -0.2728
    151  CA       -15.2960    6.3320    0.0840 C.3    88  PRO88       0.1401
    152  C        -16.3240    7.1920   -0.6440 C.2    88  PRO88       0.2269
    153  O        -16.2320    7.3800   -1.8560 O.2    88  PRO88      -0.2865
    154  CB       -13.9040    6.9600    0.0080 C.3    88  PRO88       0.0296
    155  CG       -13.2840    6.3760   -1.2160 C.3    88  PRO88       0.0237
    156  CD       -13.9120    5.0200   -1.4240 C.3    88  PRO88       0.0939
    157  N        -19.6880    1.0240   -4.4160 N.3    94  HIS94      -0.1241
    158  CA       -18.7840    0.7640   -5.5320 C.3    94  HIS94       0.1621
    159  C        -19.1800   -0.5000   -6.2800 C.2    94  HIS94       0.2264
    160  O        -19.8080   -1.3960   -5.7200 O.2    94  HIS94      -0.2867
    161  CB       -17.3440    0.6400   -5.0360 C.3    94  HIS94       0.0745
    162  CG       -16.3320    1.2120   -5.9800 C.ar   94  HIS94       0.0817
    163  ND1      -15.7400    2.4440   -5.7920 N.ar   94  HIS94      -0.2268
    164  CD2      -15.8040    0.7160   -7.1240 C.ar   94  HIS94       0.1154
    165  CE1      -14.8960    2.6800   -6.7800 C.ar   94  HIS94       0.1986
    166  NE2      -14.9160    1.6480   -7.6000 N.ar   94  HIS94      -0.2212
    167  N        -18.0480    7.3360  -12.0560 N.3   121  PHE121     -0.1241
    168  CA       -16.6040    7.1800  -12.1760 C.3   121  PHE121      0.1605
    169  C        -16.2280    5.7160  -12.3880 C.2   121  PHE121      0.2264
    170  O        -16.8640    4.8200  -11.8320 O.2   121  PHE121     -0.2867
    171  CB       -15.9080    7.7200  -10.9240 C.3   121  PHE121      0.0534
    172  CG       -16.4040    7.1080   -9.6480 C.ar  121  PHE121     -0.0203
    173  CD1      -16.1680    5.7760   -9.3600 C.ar  121  PHE121     -0.0042
    174  CD2      -17.1080    7.8720   -8.7320 C.ar  121  PHE121     -0.0042
    175  CE1      -16.6240    5.2160   -8.1800 C.ar  121  PHE121     -0.0003
    176  CE2      -17.5680    7.3200   -7.5520 C.ar  121  PHE121     -0.0003
    177  CZ       -17.3240    5.9880   -7.2760 C.ar  121  PHE121     -0.0000
    178  N        -12.8120    2.7400  -12.9280 N.3   123  MET123     -0.1245
    179  CA       -11.4240    2.4680  -12.5840 C.3   123  MET123      0.1570
    180  C        -10.9800    1.1120  -13.1200 C.2   123  MET123      0.2261
    181  O        -11.7920    0.2080  -13.3000 O.2   123  MET123     -0.2867
    182  CB       -11.2320    2.5080  -11.0640 C.3   123  MET123      0.0387
    183  CG       -10.4240    3.7040  -10.5840 C.3   123  MET123      0.0595
    184  SD       -11.1640    4.5240   -9.1600 S.3   123  MET123     -0.1393
    185  CE       -12.8440    4.7640   -9.7280 C.3   123  MET123      0.0692
    186  N         -7.9920   -1.8080  -12.3680 N.3   125  THR125     -0.1218
    187  CA        -6.9000   -2.2760  -11.5240 C.3   125  THR125      0.1862
    188  C         -6.2400   -3.5240  -12.1040 C.2   125  THR125      0.2287
    189  O         -6.9160   -4.4640  -12.5160 O.2   125  THR125     -0.2866
    190  CB        -7.4080   -2.5720  -10.1160 C.3   125  THR125      0.1770
    191  OG1       -6.3520   -3.0200   -9.2840 O.3   125  THR125     -0.2211
    192  CG2       -8.5000   -3.6200  -10.0800 C.3   125  THR125      0.0375
    193  N         -3.5040   -6.4920  -11.2040 N.3   127  TYR127     -0.1241
    194  CA        -2.7360   -7.1600  -10.1640 C.3   127  TYR127      0.1605
    195  C         -1.8040   -8.2120  -10.7440 C.2   127  TYR127      0.2264
    196  O         -2.2360   -9.1000  -11.4760 O.2   127  TYR127     -0.2867
    197  CB        -3.6840   -7.8080   -9.1520 C.3   127  TYR127      0.0534
    198  CG        -4.6080   -6.8280   -8.4720 C.ar  127  TYR127     -0.0201
    199  CD1       -4.1400   -5.9720   -7.4840 C.ar  127  TYR127     -0.0009
    200  CD2       -5.9520   -6.7600   -8.8120 C.ar  127  TYR127     -0.0009
    201  CE1       -4.9840   -5.0720   -6.8600 C.ar  127  TYR127      0.0417
    202  CE2       -6.8040   -5.8640   -8.1960 C.ar  127  TYR127      0.0417
    203  CZ        -6.3160   -5.0240   -7.2200 C.ar  127  TYR127      0.1957
    204  OH        -7.1600   -4.1280   -6.6000 O.3   127  TYR127     -0.2866
    205  N         -1.7240    4.1760  -14.0360 N.3   156  VAL156     -0.1245
    206  CA        -0.6040    4.0120  -13.1120 C.3   156  VAL156      0.1561
    207  C          0.0000    2.6160  -13.2400 C.2   156  VAL156      0.2260
    208  O         -0.5840    1.6360  -12.7800 O.2   156  VAL156     -0.2867
    209  CB        -1.0360    4.2400  -11.6520 C.3   156  VAL156      0.0252
    210  CG1        0.1800    4.3480  -10.7440 C.3   156  VAL156      0.0019
    211  CG2       -1.9080    5.4840  -11.5360 C.3   156  VAL156      0.0019
@<TRIPOS>BOND
     1    14    13    2
     2   205   206    1
     3    13    12    1
     4     8     9    1
     5     8     7    1
     6    11     9   am
     7    11    12    1
     8   181   180    2
     9   207   206    1
    10   207   208    2
    11   180   179    1
    12   206   209    1
    13     9    10    2
    14   178   179    1
    15    12    15    1
    16   179   182    1
    17   189   188    2
    18   169   168    1
    19   169   170    2
    20   186   187    1
    21   168   167    1
    22   168   171    1
    23   188   187    1
    24   209   211    1
    25   209   210    1
    26   187   190    1
    27   196   195    2
    28    15    16    1
    29   193   194    1
    30   182   183    1
    31   171   172    1
    32   195   194    1
    33   183   184    1
    34    16    18    1
    35    16    17    1
    36    43    44    1
    37    43    40    1
    38   194   197    1
    39    45    44    1
    40    45    46    1
    41   190   192    1
    42   190   191    1
    43   185   184    1
    44    46    47    1
    45   172   173   ar
    46   172   174   ar
    47     4     3    2
    48     3     2    1
    49    21    22    2
    50    21    20    1
    51    19    20    1
    52   173   175   ar
    53    41    42    2
    54    41    40    1
    55   197   198    1
    56    40    39    1
    57    23    20    1
    58    23    24    1
    59   200   198   ar
    60   200   202   ar
    61   174   176   ar
    62    39    32   am
    63   198   199   ar
    64     6     5    1
    65    65    63   ar
    66    65    66   ar
    67   202   203   ar
    68     2     5    1
    69     2     1    1
    70   175   177   ar
    71    54    53    1
    72    30    31    1
    73    63    61   ar
    74    24    25   ar
    75    24    26   ar
    76    67    66    1
    77    51    50    2
    78    25    27   ar
    79   166   164   ar
    80   166   165   ar
    81   176   177   ar
    82   199   201   ar
    83    66    64   ar
    84    32    31    1
    85    32    33    2
    86   203   201   ar
    87   203   204    1
    88   164   162   ar
    89    26    28   ar
    90    53    55    1
    91    53    52    1
    92    31    34    1
    93   165   163   ar
    94    61    60    1
    95    61    62   ar
    96    57    60    1
    97    57    58    1
    98    57    56    1
    99    27    29   ar
   100    50    56   am
   101    50    49    1
   102    48    49    1
   103    64    62   ar
   104   159   160    2
   105   159   158    1
   106    58    59    2
   107    28    29   ar
   108   162   163   ar
   109   162   161    1
   110    49    52    1
   111    34    35    1
   112   143   142    1
   113   141   142   ar
   114   141   139   ar
   115   158   161    1
   116   158   157    1
   117   142   140   ar
   118   139   137   ar
   119    68    69    1
   120    35    36    1
   121   131   130    1
   122    37    36    1
   123    37    38    1
   124    88    86    1
   125    71    70    2
   126    79    78    1
   127   132   133    1
   128    80    78    1
   129    78    75    1
   130   140   138   ar
   131   137   138   ar
   132   137   136    1
   133   149   148    1
   134    73    72    1
   135    69    70    1
   136    69    72    1
   137   130   129    1
   138    77    76    2
   139    86    87    1
   140    86    85    1
   141   136   133    1
   142   148   145    1
   143   135   134    2
   144   133   134    1
   145   105   104   ar
   146   105   103   ar
   147    75    74    1
   148    75    76    1
   149   104   102   ar
   150    85    82    1
   151   153   152    2
   152   103   101   ar
   153    94    93    1
   154   113   112    2
   155   129   128    1
   156   156   155    1
   157   156   150    1
   158   102   100   ar
   159   114   112   am
   160   155   154    1
   161   112   111    1
   162   145   144    1
   163   145   146    1
   164   101   100   ar
   165   100    99    1
   166   152   151    1
   167   150   146   am
   168   150   151    1
   169   106   107    1
   170   128   125    1
   171    82    81    1
   172    82    83    1
   173   146   147    2
   174    93    90    1
   175   110   111    1
   176   110   107    1
   177    99    96    1
   178   154   151    1
   179   109   108    2
   180   107   108    1
   181    83    84    2
   182    90    89    1
   183    90    91    1
   184   120   119    1
   185   120   121    1
   186   127   126    2
   187   126   125    1
   188   125   124    1
   189   119   116    1
   190    96    95    1
   191    96    97    1
   192   121   122   ar
   193   121   123   ar
   194    91    92    2
   195    97    98    2
   196   115   116    1
   197   116   117    1
   198   117   118    2
