@<TRIPOS>MOLECULE
tmp/2ktqC00.pdb
 139 136 0 0 0
SMALL
GASTEIGER

@<TRIPOS>ATOM
      1  N        -14.1740   36.1160   -4.0290 N.3   279  ARG279     -0.1245
      2  CA       -12.7850   36.0420   -3.5900 C.3   279  ARG279      0.1563
      3  C        -12.2410   37.4480   -3.3770 C.2   279  ARG279      0.2260
      4  O        -12.7900   38.4280   -3.8880 O.2   279  ARG279     -0.2867
      5  CB       -11.9080   35.3320   -4.6230 C.3   279  ARG279      0.0307
      6  CG       -12.3310   33.9320   -4.9560 C.3   279  ARG279      0.0489
      7  CD       -11.2020   32.9470   -4.7350 C.3   279  ARG279      0.2205
      8  NE       -10.1870   33.0030   -5.7810 N.pl3 279  ARG279     -0.0865
      9  CZ        -9.4650   31.9600   -6.1860 C.cat 279  ARG279      0.5346
     10  NH1       -9.6380   30.7650   -5.6410 N.pl3 279  ARG279      0.1354
     11  NH2       -8.5420   32.1220   -7.1180 N.pl3 279  ARG279      0.1354
     12  N         -2.2150   26.5670    4.8550 N.3   316  ASP316     -0.1225
     13  CA        -2.9550   26.2860    3.6290 C.3   316  ASP316      0.1805
     14  C         -4.0220   25.2280    3.8330 C.2   316  ASP316      0.2598
     15  O         -3.7440   24.1700    4.3930 O.2   316  ASP316     -0.2718
     16  CB        -2.0310   25.7400    2.5480 C.3   316  ASP316      0.1424
     17  CG        -0.9940   26.7220    2.1110 C.2   316  ASP316      0.3668
     18  OD1       -0.3860   27.3820    2.9840 O.co2 316  ASP316     -0.2456
     19  OD2       -0.7850   26.8220    0.8810 O.co2 316  ASP316     -0.2456
     20  N         -5.2330   25.4970    3.3620 N.am  317  TYR317     -0.1962
     21  CA        -6.2920   24.5030    3.4480 C.3   317  TYR317      0.1771
     22  C         -5.8840   23.4710    2.3960 C.2   317  TYR317      0.2620
     23  O         -5.2360   23.8100    1.4060 O.2   317  TYR317     -0.2715
     24  CB        -7.6440   25.0990    3.0580 C.3   317  TYR317      0.0574
     25  CG        -8.3950   25.7930    4.1730 C.ar  317  TYR317     -0.0198
     26  CD1       -9.0520   25.0630    5.1650 C.ar  317  TYR317     -0.0009
     27  CD2       -8.5130   27.1820    4.1930 C.ar  317  TYR317     -0.0009
     28  CE1       -9.8200   25.7030    6.1480 C.ar  317  TYR317      0.0417
     29  CE2       -9.2770   27.8340    5.1670 C.ar  317  TYR317      0.0417
     30  CZ        -9.9310   27.0910    6.1360 C.ar  317  TYR317      0.1957
     31  OH       -10.7170   27.7380    7.0630 O.3   317  TYR317     -0.2866
     32  N         -6.2430   22.2150    2.6100 N.am  318  SER318     -0.1936
     33  CA        -5.9030   21.1750    1.6520 C.3   318  SER318      0.2055
     34  C         -7.0760   20.9340    0.6870 C.2   318  SER318      0.2643
     35  O         -8.1620   20.5230    1.1070 O.2   318  SER318     -0.2714
     36  CB        -5.5480   19.8910    2.3910 C.3   318  SER318      0.2130
     37  OG        -5.5480   18.7970    1.4950 O.3   318  SER318     -0.2179
     38  N         -6.8370   21.1850   -0.6020 N.am  319  GLN319     -0.1963
     39  CA        -7.8490   21.0520   -1.6480 C.3   319  GLN319      0.1733
     40  C         -9.2120   21.3780   -1.0880 C.2   319  GLN319      0.2616
     41  O        -10.1360   20.5700   -1.1380 O.2   319  GLN319     -0.2715
     42  CB        -7.8520   19.6500   -2.2480 C.3   319  GLN319      0.0408
     43  CG        -8.3010   18.5700   -1.3200 C.3   319  GLN319      0.0908
     44  CD        -7.3600   17.3950   -1.3430 C.2   319  GLN319      0.2608
     45  OE1       -6.1900   17.5370   -1.6960 O.2   319  GLN319     -0.2717
     46  NE2       -7.8610   16.2230   -0.9670 N.am  319  GLN319     -0.0878
     47  N         -9.3180   22.5840   -0.5490 N.am  320  ILE320     -0.1963
     48  CA       -10.5540   23.0520    0.0480 C.3   320  ILE320      0.1727
     49  C        -11.6910   23.0470   -0.9590 C.2   320  ILE320      0.2616
     50  O        -12.8600   22.9250   -0.5860 O.2   320  ILE320     -0.2715
     51  CB       -10.3870   24.4800    0.5850 C.3   320  ILE320      0.0290
     52  CG1      -11.7470   25.0390    1.0160 C.3   320  ILE320      0.0022
     53  CG2       -9.7320   25.3550   -0.4860 C.3   320  ILE320      0.0023
     54  CD1      -11.8130   25.4550    2.4780 C.3   320  ILE320      0.0001
     55  N        -11.3450   23.1790   -2.2360 N.am  321  GLU321     -0.1977
     56  CA       -12.3450   23.2110   -3.2930 C.3   321  GLU321      0.1602
     57  C        -12.9370   21.8430   -3.6150 C.2   321  GLU321      0.2287
     58  O        -14.1250   21.7340   -3.9260 O.2   321  GLU321     -0.2864
     59  CB       -11.7470   23.8460   -4.5450 C.3   321  GLU321      0.0415
     60  CG       -11.4630   25.3240   -4.3740 C.3   321  GLU321      0.1163
     61  CD       -11.7890   26.1320   -5.6120 C.2   321  GLU321      0.3649
     62  OE1      -11.8010   25.5590   -6.7190 O.co2 321  GLU321     -0.2457
     63  OE2      -12.0300   27.3480   -5.4800 O.co2 321  GLU321     -0.2457
     64  N         -9.9490   17.4770  -10.3970 N.3   363  PHE363     -0.1241
     65  CA        -9.8030   18.9260  -10.2880 C.3   363  PHE363      0.1605
     66  C        -10.2030   19.6490  -11.5660 C.2   363  PHE363      0.2264
     67  O        -10.5710   20.8220  -11.5330 O.2   363  PHE363     -0.2867
     68  CB        -8.3580   19.2810   -9.9460 C.3   363  PHE363      0.0534
     69  CG        -8.1300   19.5350   -8.4880 C.ar  363  PHE363     -0.0203
     70  CD1       -7.1710   18.8110   -7.7830 C.ar  363  PHE363     -0.0042
     71  CD2       -8.8740   20.5010   -7.8160 C.ar  363  PHE363     -0.0042
     72  CE1       -6.9500   19.0460   -6.4240 C.ar  363  PHE363     -0.0003
     73  CE2       -8.6660   20.7480   -6.4610 C.ar  363  PHE363     -0.0003
     74  CZ        -7.7000   20.0180   -5.7600 C.ar  363  PHE363     -0.0000
     75  N        -13.6380   21.3400  -12.0520 N.3   366  LEU366     -0.1231
     76  CA       -13.9030   22.6430  -11.4470 C.3   366  LEU366      0.1693
     77  C        -14.1860   23.6610  -12.5520 C.2   366  LEU366      0.2592
     78  O        -14.7030   24.7430  -12.2870 O.2   366  LEU366     -0.2718
     79  CB       -12.7100   23.0870  -10.6080 C.3   366  LEU366      0.0284
     80  CG       -12.4690   22.3190   -9.3090 C.3   366  LEU366      0.0019
     81  CD1      -11.1750   22.8000   -8.6960 C.3   366  LEU366      0.0001
     82  CD2      -13.5880   22.5170   -8.3190 C.3   366  LEU366      0.0001
     83  N        -13.8220   23.3080  -13.7840 N.am  367  TYR367     -0.1976
     84  CA       -14.0660   24.1540  -14.9540 C.3   367  TYR367      0.1639
     85  C        -14.5860   23.2880  -16.0910 C.2   367  TYR367      0.2290
     86  O        -14.8670   23.7840  -17.1760 O.2   367  TYR367     -0.2864
     87  CB       -12.7950   24.8510  -15.4490 C.3   367  TYR367      0.0560
     88  CG       -11.7250   25.0520  -14.4150 C.ar  367  TYR367     -0.0198
     89  CD1      -11.9980   25.7220  -13.2220 C.ar  367  TYR367     -0.0009
     90  CD2      -10.4320   24.5840  -14.6320 C.ar  367  TYR367     -0.0009
     91  CE1      -11.0130   25.9210  -12.2690 C.ar  367  TYR367      0.0417
     92  CE2       -9.4400   24.7760  -13.6890 C.ar  367  TYR367      0.0417
     93  CZ        -9.7390   25.4450  -12.5090 C.ar  367  TYR367      0.1957
     94  OH        -8.7630   25.6250  -11.5640 O.3   367  TYR367     -0.2866
     95  N        -15.8520   27.9990   -5.7150 N.3   450  GLN450     -0.1245
     96  CA       -14.8490   29.0220   -5.4650 C.3   450  GLN450      0.1566
     97  C        -15.3790   30.0320   -4.4630 C.2   450  GLN450      0.2260
     98  O        -14.6480   30.4850   -3.5890 O.2   450  GLN450     -0.2867
     99  CB       -14.4600   29.7340   -6.7710 C.3   450  GLN450      0.0367
    100  CG       -13.5280   30.9270   -6.5620 C.3   450  GLN450      0.0905
    101  CD       -12.9620   31.4830   -7.8560 C.2   450  GLN450      0.2608
    102  OE1      -12.4590   30.7390   -8.6990 O.2   450  GLN450     -0.2717
    103  NE2      -13.0350   32.7980   -8.0160 N.am  450  GLN450     -0.0878
    104  N         -5.9910   33.2900   -1.0400 N.3   480  HIS480     -0.1226
    105  CA        -7.1860   32.5140   -1.3460 C.3   480  HIS480      0.1752
    106  C         -7.4500   31.3290   -0.4310 C.2   480  HIS480      0.2596
    107  O         -8.3960   31.3720    0.3480 O.2   480  HIS480     -0.2718
    108  CB        -7.1390   32.1100   -2.8150 C.3   480  HIS480      0.0759
    109  CG        -6.8520   33.2700   -3.7110 C.ar  480  HIS480      0.0818
    110  ND1       -5.7180   33.3500   -4.4890 N.ar  480  HIS480     -0.2268
    111  CD2       -7.4900   34.4550   -3.8520 C.ar  480  HIS480      0.1154
    112  CE1       -5.6690   34.5360   -5.0680 C.ar  480  HIS480      0.1986
    113  NE2       -6.7310   35.2260   -4.6970 N.ar  480  HIS480     -0.2212
    114  N         -6.6390   30.2790   -0.4980 N.am  481  ASP481     -0.1960
    115  CA        -6.8730   29.1540    0.3910 C.3   481  ASP481      0.1840
    116  C         -5.7810   29.0380    1.4400 C.2   481  ASP481      0.2621
    117  O         -5.6350   28.0060    2.0870 O.2   481  ASP481     -0.2715
    118  CB        -7.0190   27.8450   -0.3980 C.3   481  ASP481      0.1450
    119  CG        -5.7340   27.4070   -1.0790 C.2   481  ASP481      0.3671
    120  OD1       -5.6500   26.2050   -1.3980 O.co2 481  ASP481     -0.2456
    121  OD2       -4.8190   28.2300   -1.3060 O.co2 481  ASP481     -0.2456
    122  N         -5.0230   30.1140    1.6220 N.am  482  GLU482     -0.1977
    123  CA        -3.9470   30.1150    2.6050 C.3   482  GLU482      0.1602
    124  C         -3.7060   31.4800    3.2270 C.2   482  GLU482      0.2287
    125  O         -4.0640   32.5170    2.6620 O.2   482  GLU482     -0.2864
    126  CB        -2.6470   29.6060    1.9790 C.3   482  GLU482      0.0415
    127  CG        -2.1900   30.3850    0.7530 C.3   482  GLU482      0.1163
    128  CD        -0.9500   29.7870    0.1100 C.2   482  GLU482      0.3649
    129  OE1       -1.1050   28.9840   -0.8380 O.co2 482  GLU482     -0.2457
    130  OE2        0.1740   30.1230    0.5610 O.co2 482  GLU482     -0.2457
    131  N         -2.5940   22.5050    6.4720 N.3   516  GLU516     -0.1245
    132  CA        -1.1780   22.2010    6.6820 C.3   516  GLU516      0.1567
    133  C         -0.4920   23.5020    7.0930 C.2   516  GLU516      0.2260
    134  O         -0.7270   24.5480    6.4950 O.2   516  GLU516     -0.2867
    135  CB        -0.5560   21.6520    5.4040 C.3   516  GLU516      0.0388
    136  CG        -0.8880   22.4910    4.2190 C.3   516  GLU516      0.1160
    137  CD        -0.5040   21.8090    2.9470 C.2   516  GLU516      0.3649
    138  OE1        0.1680   20.7430    3.0480 O.co2 516  GLU516     -0.2457
    139  OE2       -0.8330   22.3500    1.8560 O.co2 516  GLU516     -0.2457
@<TRIPOS>BOND
     1    86    85    2
     2    85    84    1
     3    87    84    1
     4    87    88    1
     5    84    83    1
     6    90    88   ar
     7    90    92   ar
     8    88    89   ar
     9    83    77   am
    10    92    93   ar
    11    89    91   ar
    12    77    78    2
    13    77    76    1
    14    93    91   ar
    15    93    94    1
    16    75    76    1
    17    66    67    2
    18    66    65    1
    19    76    79    1
    20    79    80    1
    21    64    65    1
    22    65    68    1
    23    68    69    1
    24    80    81    1
    25    80    82    1
    26   102   101    2
    27    69    71   ar
    28    69    70   ar
    29   103   101   am
    30   101   100    1
    31    71    73   ar
    32    70    72   ar
    33    11     9    1
    34    99   100    1
    35    99    96    1
    36    62    61   ar
    37    73    74   ar
    38    72    74   ar
    39     9     8    2
    40     9    10    1
    41     8     7    1
    42    95    96    1
    43    61    63   ar
    44    61    60    1
    45    96    97    1
    46   112   113   ar
    47   112   110   ar
    48     6     7    1
    49     6     5    1
    50   113   111   ar
    51     5     2    1
    52    59    60    1
    53    59    56    1
    54   110   109   ar
    55    97    98    2
    56     1     2    1
    57    58    57    2
    58     4     3    2
    59   111   109   ar
    60   109   108    1
    61    57    56    1
    62     2     3    1
    63    56    55    1
    64   108   105    1
    65    42    39    1
    66    42    43    1
    67    55    49   am
    68    45    44    2
    69    39    40    1
    70    39    38    1
    71   120   119   ar
    72   105   104    1
    73   105   106    1
    74    44    43    1
    75    44    46   am
    76   121   119   ar
    77    41    40    2
    78    40    47   am
    79   119   118    1
    80    49    50    2
    81    49    48    1
    82   129   128   ar
    83    38    34   am
    84    47    48    1
    85   114   106   am
    86   114   115    1
    87    53    51    1
    88   106   107    2
    89   118   115    1
    90    48    51    1
    91   128   130   ar
    92   128   127    1
    93   115   116    1
    94    51    52    1
    95    34    35    2
    96    34    33    1
    97   127   126    1
    98    19    17   ar
    99    52    54    1
   100    23    22    2
   101   116   122   am
   102   116   117    2
   103    37    36    1
   104   122   123    1
   105    33    36    1
   106    33    32    1
   107   139   137   ar
   108   126   123    1
   109    17    16    1
   110    17    18   ar
   111    22    32   am
   112    22    21    1
   113    16    13    1
   114   123   124    1
   115   125   124    2
   116   137   138   ar
   117   137   136    1
   118    24    21    1
   119    24    25    1
   120    20    21    1
   121    20    14   am
   122    13    14    1
   123    13    12    1
   124    14    15    2
   125    25    27   ar
   126    25    26   ar
   127    27    29   ar
   128   136   135    1
   129    26    28   ar
   130    29    30   ar
   131   135   132    1
   132    30    28   ar
   133    30    31    1
   134   131   132    1
   135   134   133    2
   136   132   133    1
