@<TRIPOS>MOLECULE
tmp/2kwiA00.pdb
 146 143 0 0 0
SMALL
GASTEIGER

@<TRIPOS>ATOM
      1  N         -5.3750   -4.3070   10.5150 N.3    16  GLY16      -0.1210
      2  CA        -4.3410   -5.2010   10.9670 C.3    16  GLY16       0.1956
      3  C         -4.0270   -6.2400    9.9200 C.2    16  GLY16       0.2612
      4  O         -2.9330   -6.2530    9.3560 O.2    16  GLY16      -0.2717
      5  N         -4.9980   -7.0890    9.6340 N.am   17  GLY17      -0.1942
      6  CA        -4.8100   -8.1070    8.6280 C.3    17  GLY17       0.2014
      7  C         -5.7200   -7.9060    7.4390 C.2    17  GLY17       0.2639
      8  O         -5.3550   -7.2100    6.4850 O.2    17  GLY17      -0.2714
      9  N         -6.8990   -8.5250    7.4990 N.am   18  VAL18      -0.1963
     10  CA        -7.9060   -8.4470    6.4380 C.3    18  VAL18       0.1727
     11  C         -7.4740   -9.2300    5.1990 C.2    18  VAL18       0.2617
     12  O         -8.2160  -10.0630    4.6860 O.2    18  VAL18      -0.2715
     13  CB        -8.2230   -6.9890    6.0360 C.3    18  VAL18       0.0290
     14  CG1       -9.2080   -6.9660    4.8810 C.3    18  VAL18       0.0023
     15  CG2       -8.7700   -6.2090    7.2240 C.3    18  VAL18       0.0023
     16  N         -6.2710   -8.9530    4.7300 N.am   19  GLY19      -0.1940
     17  CA        -5.7560   -9.6120    3.5510 C.3    19  GLY19       0.2014
     18  C         -5.0090   -8.6640    2.6350 C.2    19  GLY19       0.2639
     19  O         -4.8730   -8.9230    1.4400 O.2    19  GLY19      -0.2714
     20  N         -4.4950   -7.5750    3.2020 N.am   20  LYS20      -0.1963
     21  CA        -3.8450   -6.5340    2.4080 C.3    20  LYS20       0.1728
     22  C         -2.3950   -6.8960    2.0620 C.2    20  LYS20       0.2617
     23  O         -1.6330   -6.0590    1.5890 O.2    20  LYS20      -0.2715
     24  CB        -3.9180   -5.1880    3.1430 C.3    20  LYS20       0.0311
     25  CG        -3.0140   -5.0630    4.3610 C.3    20  LYS20       0.0038
     26  CD        -3.3450   -3.8000    5.1420 C.3    20  LYS20       0.0206
     27  CE        -2.2810   -3.4600    6.1690 C.3    20  LYS20       0.1093
     28  NZ        -1.0760   -2.8640    5.5400 N.3    20  LYS20      -0.1314
     29  N         -2.0240   -8.1490    2.2920 N.am   21  SER21      -0.1936
     30  CA        -0.7170   -8.6410    1.8770 C.3    21  SER21       0.2055
     31  C         -0.8640   -9.5720    0.6700 C.2    21  SER21       0.2642
     32  O          0.0010   -9.6190   -0.2040 O.2    21  SER21      -0.2714
     33  CB        -0.0290   -9.3920    3.0230 C.3    21  SER21       0.2130
     34  OG         0.2100   -8.5540    4.1540 O.3    21  SER21      -0.2179
     35  N         -1.9740  -10.3050    0.6270 N.am   22  ALA22      -0.1977
     36  CA        -2.1980  -11.2920   -0.4240 C.3    22  ALA22       0.1597
     37  C         -2.4790  -10.6200   -1.7570 C.2    22  ALA22       0.2287
     38  O         -1.9760  -11.0520   -2.7910 O.2    22  ALA22      -0.2864
     39  CB        -3.3410  -12.2220   -0.0540 C.3    22  ALA22       0.0319
     40  N         -0.4410  -17.1130   -4.6620 N.3    32  PHE32      -0.1227
     41  CA        -1.1350  -16.9850   -3.3930 C.3    32  PHE32       0.1736
     42  C         -0.1390  -17.1080   -2.2500 C.2    32  PHE32       0.2595
     43  O          0.8100  -17.8870   -2.3270 O.2    32  PHE32      -0.2718
     44  CB        -2.2200  -18.0580   -3.2720 C.3    32  PHE32       0.0547
     45  CG        -3.1170  -17.8910   -2.0780 C.ar   32  PHE32      -0.0202
     46  CD1       -4.1050  -16.9190   -2.0670 C.ar   32  PHE32      -0.0042
     47  CD2       -2.9770  -18.7090   -0.9670 C.ar   32  PHE32      -0.0042
     48  CE1       -4.9350  -16.7670   -0.9740 C.ar   32  PHE32      -0.0003
     49  CE2       -3.8050  -18.5590    0.1290 C.ar   32  PHE32      -0.0003
     50  CZ        -4.7840  -17.5870    0.1250 C.ar   32  PHE32      -0.0000
     51  N         -0.3550  -16.3360   -1.1960 N.am   33  VAL33      -0.1980
     52  CA         0.5560  -16.3250   -0.0650 C.3    33  VAL33       0.1595
     53  C          0.5080  -17.6510    0.6830 C.2    33  VAL33       0.2287
     54  O         -0.4170  -17.9060    1.4540 O.2    33  VAL33      -0.2864
     55  CB         0.2270  -15.1730    0.9100 C.3    33  VAL33       0.0276
     56  CG1        1.2370  -15.1130    2.0460 C.3    33  VAL33       0.0022
     57  CG2        0.1740  -13.8490    0.1680 C.3    33  VAL33       0.0022
     58  N          4.2600  -16.0620    3.9990 N.3    36  TYR36      -0.1227
     59  CA         5.0430  -14.8460    3.8500 C.3    36  TYR36       0.1736
     60  C          4.6810  -13.8990    4.9810 C.2    36  TYR36       0.2595
     61  O          3.7040  -13.1540    4.8960 O.2    36  TYR36      -0.2718
     62  CB         4.7810  -14.1960    2.4810 C.3    36  TYR36       0.0548
     63  CG         5.8130  -13.1620    2.0740 C.ar   36  TYR36      -0.0200
     64  CD1        7.1600  -13.4930    2.0190 C.ar   36  TYR36      -0.0009
     65  CD2        5.4420  -11.8650    1.7260 C.ar   36  TYR36      -0.0009
     66  CE1        8.1090  -12.5680    1.6340 C.ar   36  TYR36       0.0417
     67  CE2        6.3900  -10.9320    1.3420 C.ar   36  TYR36       0.0417
     68  CZ         7.7230  -11.2920    1.2990 C.ar   36  TYR36       0.1957
     69  OH         8.6750  -10.3800    0.9060 O.3    36  TYR36      -0.2866
     70  N          5.4490  -13.9640    6.0540 N.am   37  GLU37      -0.1966
     71  CA         5.1310  -13.2300    7.2700 C.3    37  GLU37       0.1718
     72  C          5.4350  -11.7300    7.1450 C.2    37  GLU37       0.2458
     73  O          4.4950  -10.9330    7.1610 O.2    37  GLU37      -0.2730
     74  CB         5.8670  -13.8360    8.4710 C.3    37  GLU37       0.0428
     75  CG         5.6290  -13.0930    9.7730 C.3    37  GLU37       0.1163
     76  CD         6.4170  -13.6720   10.9280 C.2    37  GLU37       0.3649
     77  OE1        7.6260  -13.3800   11.0300 O.co2  37  GLU37      -0.2457
     78  OE2        5.8300  -14.4210   11.7340 O.co2  37  GLU37      -0.2457
     79  N          6.7360  -11.3430    6.9640 N.am   38  PRO38      -0.2716
     80  CA         7.2320   -9.9620    7.0950 C.3    38  PRO38       0.1536
     81  C          6.2090   -8.8580    6.8050 C.2    38  PRO38       0.2599
     82  O          5.3400   -8.5780    7.6340 O.2    38  PRO38      -0.2715
     83  CB         8.3640   -9.9320    6.0750 C.3    38  PRO38       0.0310
     84  CG         8.9450  -11.3060    6.1140 C.3    38  PRO38       0.0237
     85  CD         7.8500  -12.2400    6.5800 C.3    38  PRO38       0.0939
     86  N          6.3300   -8.2290    5.6350 N.am   39  THR39      -0.1937
     87  CA         5.4560   -7.1210    5.2250 C.3    39  THR39       0.2028
     88  C          5.2190   -6.1180    6.3570 C.2    39  THR39       0.2642
     89  O          4.1200   -5.5930    6.5090 O.2    39  THR39      -0.2714
     90  CB         4.0940   -7.6310    4.7000 C.3    39  THR39       0.1808
     91  OG1        3.4540   -8.4570    5.6850 O.3    39  THR39      -0.2208
     92  CG2        4.2730   -8.4180    3.4120 C.3    39  THR39       0.0379
     93  N          6.2450   -5.8690    7.1630 N.am   40  LYS40      -0.1977
     94  CA         6.1470   -4.8680    8.2130 C.3    40  LYS40       0.1596
     95  C          6.4630   -3.5200    7.5930 C.2    40  LYS40       0.2287
     96  O          5.7010   -2.5640    7.7030 O.2    40  LYS40      -0.2864
     97  CB         7.1300   -5.1680    9.3520 C.3    40  LYS40       0.0298
     98  CG         7.1960   -6.6400    9.7450 C.3    40  LYS40       0.0038
     99  CD         8.1980   -6.8770   10.8670 C.3    40  LYS40       0.0206
    100  CE         7.6170   -6.5320   12.2280 C.3    40  LYS40       0.1093
    101  NZ         6.6170   -7.5380   12.6670 N.3    40  LYS40      -0.1314
    102  N        -12.4590   -7.0100    0.9950 N.3   121  ASN121     -0.1225
    103  CA       -11.8590   -8.3190    0.7710 C.3   121  ASN121      0.1785
    104  C        -12.7100   -9.4050    1.4170 C.2   121  ASN121      0.2597
    105  O        -13.4590   -9.1300    2.3620 O.2   121  ASN121     -0.2718
    106  CB       -10.4350   -8.3610    1.3410 C.3   121  ASN121      0.1169
    107  CG        -9.7080   -9.6660    1.0410 C.2   121  ASN121      0.2627
    108  OD1       -9.9090  -10.2890   -0.0030 O.2   121  ASN121     -0.2716
    109  ND2       -8.8710  -10.0990    1.9690 N.am  121  ASN121     -0.0877
    110  N        -12.5880  -10.6250    0.8920 N.am  122  LYS122     -0.1980
    111  CA       -13.2730  -11.8020    1.4330 C.3   122  LYS122      0.1596
    112  C        -14.7480  -11.8410    1.0480 C.2   122  LYS122      0.2287
    113  O        -15.5920  -12.2150    1.8540 O.2   122  LYS122     -0.2864
    114  CB       -13.1270  -11.8850    2.9590 C.3   122  LYS122      0.0298
    115  CG       -11.7940  -12.4400    3.4290 C.3   122  LYS122      0.0038
    116  CD       -11.7110  -13.9420    3.2030 C.3   122  LYS122      0.0206
    117  CE       -12.7710  -14.6910    3.9990 C.3   122  LYS122      0.1093
    118  NZ       -12.7110  -16.1540    3.7570 N.3   122  LYS122     -0.1314
    119  N        -15.9580  -14.0240   -0.2950 N.3   124  ASP124     -0.1239
    120  CA       -16.1550  -15.4620   -0.3650 C.3   124  ASP124      0.1674
    121  C        -16.7470  -16.0100    0.9360 C.2   124  ASP124      0.2266
    122  O        -17.0110  -17.2060    1.0440 O.2   124  ASP124     -0.2867
    123  CB       -14.8260  -16.1640   -0.6850 C.3   124  ASP124      0.1410
    124  CG       -13.6870  -15.7310    0.2230 C.2   124  ASP124      0.3668
    125  OD1      -13.0390  -14.7030   -0.0800 O.co2 124  ASP124     -0.2456
    126  OD2      -13.4260  -16.4150    1.2340 O.co2 124  ASP124     -0.2456
    127  N        -11.2230  -10.4800   -3.6560 N.3   151  SER151     -0.1202
    128  CA       -10.7810  -11.6130   -2.8690 C.3   151  SER151      0.2020
    129  C         -9.5330  -12.2030   -3.4960 C.2   151  SER151      0.2619
    130  O         -9.4570  -12.3520   -4.7150 O.2   151  SER151     -0.2717
    131  CB       -11.8750  -12.6810   -2.7690 C.3   151  SER151      0.2103
    132  OG       -11.4480  -13.7710   -1.9630 O.3   151  SER151     -0.2182
    133  N         -8.5540  -12.5200   -2.6670 N.am  152  ALA152     -0.1965
    134  CA        -7.3390  -13.1600   -3.1370 C.3   152  ALA152      0.1728
    135  C         -7.5380  -14.6660   -3.1850 C.2   152  ALA152      0.2616
    136  O         -6.6880  -15.4070   -3.6710 O.2   152  ALA152     -0.2715
    137  CB        -6.1690  -12.7970   -2.2390 C.3   152  ALA152      0.0334
    138  N         -8.6780  -15.1050   -2.6700 N.am  153  LYS153     -0.1977
    139  CA        -9.0410  -16.5080   -2.6810 C.3   153  LYS153      0.1596
    140  C         -9.5380  -16.8940   -4.0680 C.2   153  LYS153      0.2287
    141  O         -9.0570  -17.8470   -4.6770 O.2   153  LYS153     -0.2864
    142  CB       -10.1290  -16.7570   -1.6350 C.3   153  LYS153      0.0298
    143  CG       -10.5070  -18.2150   -1.4540 C.3   153  LYS153      0.0038
    144  CD        -9.3180  -19.0540   -1.0180 C.3   153  LYS153      0.0206
    145  CE        -9.7620  -20.4160   -0.5060 C.3   153  LYS153      0.1093
    146  NZ       -10.5850  -21.1550   -1.5010 N.3   153  LYS153     -0.1314
@<TRIPOS>BOND
     1   130   129    2
     2   141   140    2
     3    40    41    1
     4   140   139    1
     5   136   135    2
     6   127   128    1
     7   129   128    1
     8   129   133   am
     9    41    44    1
    10    41    42    1
    11    44    45    1
    12   135   134    1
    13   135   138   am
    14   134   133    1
    15   134   137    1
    16   128   131    1
    17    38    37    2
    18   131   132    1
    19   139   138    1
    20   139   142    1
    21    43    42    2
    22    42    51   am
    23    45    46   ar
    24    45    47   ar
    25    46    48   ar
    26    37    36    1
    27   142   143    1
    28   146   145    1
    29   143   144    1
    30    51    52    1
    31   144   145    1
    32    48    50   ar
    33    47    49   ar
    34   123   120    1
    35   123   124    1
    36    36    39    1
    37    36    35    1
    38   120   119    1
    39   120   121    1
    40    32    31    2
    41   125   124   ar
    42    52    53    1
    43    52    55    1
    44   108   107    2
    45    50    49   ar
    46    57    55    1
    47   124   126   ar
    48    35    31   am
    49    31    30    1
    50    53    54    2
    51   103   102    1
    52   103   106    1
    53   103   104    1
    54   110   104   am
    55   110   111    1
    56    69    68    1
    57    55    56    1
    58   121   122    2
    59   107   106    1
    60   107   109   am
    61   112   111    1
    62   112   113    2
    63    68    67   ar
    64    68    66   ar
    65    67    65   ar
    66   104   105    2
    67   111   114    1
    68    19    18    2
    69    23    22    2
    70    66    64   ar
    71    65    63   ar
    72    30    29    1
    73    30    33    1
    74    64    63   ar
    75    22    29   am
    76    22    21    1
    77    63    62    1
    78    21    24    1
    79    21    20    1
    80    62    59    1
    81    18    20   am
    82    18    17    1
    83   114   115    1
    84    33    34    1
    85    24    25    1
    86   116   115    1
    87   116   117    1
    88    92    90    1
    89    17    16    1
    90   118   117    1
    91    59    58    1
    92    59    60    1
    93    25    26    1
    94    12    11    2
    95    90    87    1
    96    90    91    1
    97    16    11   am
    98    14    13    1
    99    61    60    2
   100    60    70   am
   101    26    27    1
   102    11    10    1
   103    87    86    1
   104    87    88    1
   105    28    27    1
   106    86    81   am
   107    13    10    1
   108    13    15    1
   109    70    71    1
   110    83    84    1
   111    83    80    1
   112    84    85    1
   113    88    89    2
   114    88    93   am
   115    10     9    1
   116     8     7    2
   117    85    79    1
   118    81    80    1
   119    81    82    2
   120    79    80    1
   121    79    72   am
   122    72    73    2
   123    72    71    1
   124    93    94    1
   125    71    74    1
   126     7     9   am
   127     7     6    1
   128    95    96    2
   129    95    94    1
   130    94    97    1
   131    74    75    1
   132     6     5    1
   133    97    98    1
   134     4     3    2
   135     5     3   am
   136    98    99    1
   137    75    76    1
   138     3     2    1
   139     1     2    1
   140    99   100    1
   141    76    77   ar
   142    76    78   ar
   143   100   101    1
