@<TRIPOS>MOLECULE
tmp/2kzmB00.pdb
 206 198 0 0 0
SMALL
GASTEIGER

@<TRIPOS>ATOM
      1  N         57.9340   32.8190   81.9510 N.3    32  ASP32      -0.1225
      2  CA        58.5590   32.6740   83.2590 C.3    32  ASP32       0.1805
      3  C         58.1840   33.8570   84.1640 C.2    32  ASP32       0.2598
      4  O         57.7130   34.8880   83.6800 O.2    32  ASP32      -0.2718
      5  CB        60.0770   32.6240   83.0370 C.3    32  ASP32       0.1424
      6  CG        60.8540   32.2610   84.2780 C.2    32  ASP32       0.3668
      7  OD1       60.3020   31.6040   85.1790 O.co2  32  ASP32      -0.2456
      8  OD2       62.0420   32.6210   84.3410 O.co2  32  ASP32      -0.2456
      9  N         58.3300   33.6740   85.4780 N.am   33  THR33      -0.1939
     10  CA        58.0460   34.7270   86.4640 C.3    33  THR33       0.2028
     11  C         59.2490   34.8890   87.4040 C.2    33  THR33       0.2642
     12  O         59.9750   33.9270   87.6670 O.2    33  THR33      -0.2714
     13  CB        56.7880   34.4070   87.3450 C.3    33  THR33       0.1808
     14  OG1       57.0680   33.3060   88.2130 O.3    33  THR33      -0.2208
     15  CG2       55.5920   34.0530   86.4970 C.3    33  THR33       0.0379
     16  N         59.5020   36.1180   87.8390 N.am   34  GLU34      -0.1963
     17  CA        60.5840   36.3850   88.7800 C.3    34  GLU34       0.1733
     18  C         59.8890   36.9150   90.0250 C.2    34  GLU34       0.2617
     19  O         58.9280   37.6790   89.9280 O.2    34  GLU34      -0.2715
     20  CB        61.5660   37.4130   88.2290 C.3    34  GLU34       0.0429
     21  CG        62.1970   37.0180   86.8970 C.3    34  GLU34       0.1163
     22  CD        62.9640   35.7080   86.9610 C.2    34  GLU34       0.3649
     23  OE1       63.6810   35.4730   87.9490 O.co2  34  GLU34      -0.2457
     24  OE2       62.8620   34.9110   86.0130 O.co2  34  GLU34      -0.2457
     25  N         60.3560   36.4710   91.1870 N.am   35  THR35      -0.1937
     26  CA        59.7620   36.8420   92.4690 C.3    35  THR35       0.2028
     27  C         60.8370   37.2670   93.4740 C.2    35  THR35       0.2642
     28  O         62.0260   37.2480   93.1620 O.2    35  THR35      -0.2714
     29  CB        59.0270   35.6240   93.0650 C.3    35  THR35       0.1808
     30  OG1       59.9890   34.6090   93.3630 O.3    35  THR35      -0.2208
     31  CG2       58.0400   35.0360   92.0770 C.3    35  THR35       0.0379
     32  N         60.4140   37.6040   94.6930 N.am   36  ASP36      -0.1957
     33  CA        61.3410   38.0080   95.7570 C.3    36  ASP36       0.1840
     34  C         61.6190   36.9080   96.7850 C.2    36  ASP36       0.2623
     35  O         62.2860   37.1560   97.7890 O.2    36  ASP36      -0.2715
     36  CB        60.8260   39.2550   96.4900 C.3    36  ASP36       0.1450
     37  CG        59.5060   39.0180   97.2340 C.2    36  ASP36       0.3671
     38  OD1       59.0560   37.8520   97.3370 O.co2  36  ASP36      -0.2456
     39  OD2       58.9200   40.0100   97.7220 O.co2  36  ASP36      -0.2456
     40  N         61.1050   35.7030   96.5460 N.am   37  SER37      -0.1936
     41  CA        61.2980   34.6040   97.4780 C.3    37  SER37       0.2055
     42  C         60.9820   33.2430   96.8750 C.2    37  SER37       0.2642
     43  O         60.1640   33.1360   95.9690 O.2    37  SER37      -0.2714
     44  CB        60.4010   34.8360   98.6970 C.3    37  SER37       0.2130
     45  OG        60.2720   33.6710   99.4910 O.3    37  SER37      -0.2179
     46  N         61.6100   32.2000   97.4120 N.am   38  LEU38      -0.1977
     47  CA        61.3630   30.8300   96.9640 C.3    38  LEU38       0.1596
     48  C         60.0530   30.2990   97.5500 C.2    38  LEU38       0.2287
     49  O         59.5320   29.2680   97.1020 O.2    38  LEU38      -0.2864
     50  CB        62.5010   29.9170   97.3950 C.3    38  LEU38       0.0297
     51  CG        63.7640   29.9950   96.5580 C.3    38  LEU38       0.0022
     52  CD1       64.9010   29.3450   97.3000 C.3    38  LEU38       0.0001
     53  CD2       63.5170   29.3200   95.2180 C.3    38  LEU38       0.0001
     54  N         56.5540   30.0490   97.6790 N.3    40  ASN40      -0.1240
     55  CA        55.4400   30.2730   96.7860 C.3    40  ASN40       0.1653
     56  C         54.2540   31.0590   97.3410 C.2    40  ASN40       0.2266
     57  O         53.8510   32.0540   96.7440 O.2    40  ASN40      -0.2867
     58  CB        54.9730   28.9370   96.2160 C.3    40  ASN40       0.1155
     59  CG        54.2200   29.0960   94.9270 C.2    40  ASN40       0.2627
     60  OD1       54.8100   29.0940   93.8510 O.2    40  ASN40      -0.2716
     61  ND2       52.9090   29.2480   95.0240 N.am   40  ASN40      -0.0877
     62  N         60.1260   25.9840   82.4860 N.3    96  GLN96      -0.1231
     63  CA        60.9340   25.0520   83.2640 C.3    96  GLN96       0.1698
     64  C         60.3770   25.1050   84.6840 C.2    96  GLN96       0.2592
     65  O         60.4470   26.1370   85.3560 O.2    96  GLN96      -0.2718
     66  CB        62.4050   25.4340   83.2480 C.3    96  GLN96       0.0381
     67  CG        63.2780   24.6410   84.2250 C.3    96  GLN96       0.0905
     68  CD        63.5830   23.2180   83.7850 C.2    96  GLN96       0.2608
     69  OE1       63.2920   22.8200   82.6590 O.2    96  GLN96      -0.2717
     70  NE2       64.1780   22.4420   84.6830 N.am   96  GLN96      -0.0878
     71  N         59.7680   23.9980   85.0970 N.am   97  ASN97      -0.1974
     72  CA        59.1380   23.8680   86.4050 C.3    97  ASN97       0.1688
     73  C         57.9550   24.8240   86.5390 C.2    97  ASN97       0.2292
     74  O         57.9100   25.6800   87.4200 O.2    97  ASN97      -0.2864
     75  CB        60.1390   24.0980   87.5320 C.3    97  ASN97       0.1181
     76  CG        59.5890   23.6810   88.8720 C.2    97  ASN97       0.2629
     77  OD1       58.7000   22.8310   88.9460 O.2    97  ASN97      -0.2716
     78  ND2       60.0980   24.2820   89.9390 N.am   97  ASN97      -0.0877
     79  N         55.9250   26.0630   89.9580 N.3   100  TYR100     -0.1227
     80  CA        56.2420   27.2710   90.6920 C.3   100  TYR100      0.1736
     81  C         55.5180   28.5020   90.1170 C.2   100  TYR100      0.2595
     82  O         54.9190   29.2830   90.8570 O.2   100  TYR100     -0.2718
     83  CB        57.7590   27.4650   90.6930 C.3   100  TYR100      0.0548
     84  CG        58.2140   28.7170   91.3790 C.ar  100  TYR100     -0.0200
     85  CD1       58.4430   28.7440   92.7510 C.ar  100  TYR100     -0.0009
     86  CD2       58.4000   29.8870   90.6580 C.ar  100  TYR100     -0.0009
     87  CE1       58.8440   29.9040   93.3800 C.ar  100  TYR100      0.0417
     88  CE2       58.7940   31.0510   91.2750 C.ar  100  TYR100      0.0417
     89  CZ        59.0120   31.0580   92.6270 C.ar  100  TYR100      0.1957
     90  OH        59.3780   32.2400   93.2140 O.3   100  TYR100     -0.2866
     91  N         55.5200   28.6290   88.7920 N.am  101  ASP101     -0.1974
     92  CA        54.8910   29.7700   88.1230 C.3   101  ASP101      0.1709
     93  C         53.3810   29.8110   88.2940 C.2   101  ASP101      0.2293
     94  O         52.8100   30.8790   88.5240 O.2   101  ASP101     -0.2864
     95  CB        55.2370   29.7780   86.6270 C.3   101  ASP101      0.1436
     96  CG        56.7330   29.8120   86.3660 C.2   101  ASP101      0.3671
     97  OD1       57.2940   30.9170   86.2890 O.co2 101  ASP101     -0.2456
     98  OD2       57.3540   28.7320   86.2420 O.co2 101  ASP101     -0.2456
     99  N         61.4280   20.5630   82.1920 N.3   120  MET120     -0.1245
    100  CA        62.0030   19.7860   83.2720 C.3   120  MET120      0.1570
    101  C         61.4310   18.3630   83.1740 C.2   120  MET120      0.2261
    102  O         62.1470   17.3720   83.3570 O.2   120  MET120     -0.2867
    103  CB        61.6410   20.4100   84.6200 C.3   120  MET120      0.0387
    104  CG        62.2100   19.6530   85.8120 C.3   120  MET120      0.0595
    105  SD        61.5630   20.2130   87.3940 S.3   120  MET120     -0.1393
    106  CE        59.8880   19.4810   87.3680 C.3   120  MET120      0.0692
    107  N         67.5630   20.1870   85.8780 N.3   134  ASP134     -0.1225
    108  CA        67.3920   21.6240   86.0950 C.3   134  ASP134      0.1805
    109  C         67.8390   22.3600   84.8410 C.2   134  ASP134      0.2598
    110  O         68.6740   21.8500   84.0910 O.2   134  ASP134     -0.2718
    111  CB        68.1980   22.1100   87.3070 C.3   134  ASP134      0.1424
    112  CG        69.6800   21.9060   87.1440 C.2   134  ASP134      0.3668
    113  OD1       70.1500   20.7990   87.4520 O.co2 134  ASP134     -0.2456
    114  OD2       70.3820   22.8430   86.7150 O.co2 134  ASP134     -0.2456
    115  N         67.3310   23.5720   84.6380 N.am  135  MET135     -0.1965
    116  CA        67.6860   24.3330   83.4490 C.3   135  MET135      0.1736
    117  C         69.1790   24.4850   83.1620 C.2   135  MET135      0.2616
    118  O         69.6040   24.3130   82.0250 O.2   135  MET135     -0.2715
    119  CB        67.0370   25.7100   83.4650 C.3   135  MET135      0.0427
    120  CG        66.8750   26.2920   82.0630 C.3   135  MET135      0.0599
    121  SD        66.2060   27.9640   82.0060 S.3   135  MET135     -0.1393
    122  CE        67.7110   28.8650   82.3990 C.3   135  MET135      0.0692
    123  N         69.9710   24.7770   84.1890 N.am  136  ASP136     -0.1971
    124  CA        71.4090   24.9720   84.0170 C.3   136  ASP136      0.1709
    125  C         72.1430   23.7380   83.5140 C.2   136  ASP136      0.2293
    126  O         73.0710   23.8310   82.7090 O.2   136  ASP136     -0.2864
    127  CB        72.0260   25.4660   85.3170 C.3   136  ASP136      0.1436
    128  CG        71.4180   26.7790   85.7810 C.2   136  ASP136      0.3671
    129  OD1       70.1930   26.8170   86.0360 O.co2 136  ASP136     -0.2456
    130  OD2       72.1590   27.7760   85.8830 O.co2 136  ASP136     -0.2456
    131  N         71.8350   32.1570   89.3350 N.3   150  PHE150     -0.1227
    132  CA        71.1630   33.0820   90.2500 C.3   150  PHE150      0.1736
    133  C         72.1750   33.8310   91.1280 C.2   150  PHE150      0.2595
    134  O         72.0710   35.0480   91.3090 O.2   150  PHE150     -0.2718
    135  CB        70.1400   32.3460   91.1150 C.3   150  PHE150      0.0547
    136  CG        69.2170   33.2670   91.8660 C.ar  150  PHE150     -0.0202
    137  CD1       68.1570   33.8910   91.2140 C.ar  150  PHE150     -0.0042
    138  CD2       69.4300   33.5490   93.2130 C.ar  150  PHE150     -0.0042
    139  CE1       67.3240   34.7840   91.8870 C.ar  150  PHE150     -0.0003
    140  CE2       68.6020   34.4430   93.8970 C.ar  150  PHE150     -0.0003
    141  CZ        67.5490   35.0610   93.2310 C.ar  150  PHE150     -0.0000
    142  N         73.1860   33.1040   91.6000 N.am  151  GLU151     -0.1979
    143  CA        74.2550   33.6500   92.4340 C.3   151  GLU151      0.1602
    144  C         74.9800   34.7510   91.6800 C.2   151  GLU151      0.2287
    145  O         75.4780   35.6970   92.2840 O.2   151  GLU151     -0.2864
    146  CB        75.2820   32.5650   92.7770 C.3   151  GLU151      0.0415
    147  CG        74.8230   31.4770   93.7350 C.3   151  GLU151      0.1163
    148  CD        73.5870   30.7140   93.2560 C.2   151  GLU151      0.3649
    149  OE1       73.5120   30.3190   92.0620 O.co2 151  GLU151     -0.2457
    150  OE2       72.6850   30.4980   94.0960 O.co2 151  GLU151     -0.2457
    151  N         72.7980   38.1840  100.1810 N.3   160  GLN160     -0.1245
    152  CA        72.3490   37.9220   98.8320 C.3   160  GLN160      0.1566
    153  C         71.1310   38.7920   98.6110 C.2   160  GLN160      0.2260
    154  O         70.2930   38.9120   99.4940 O.2   160  GLN160     -0.2867
    155  CB        71.9470   36.4660   98.6880 C.3   160  GLN160      0.0367
    156  CG        71.6890   36.0850   97.2690 C.3   160  GLN160      0.0905
    157  CD        71.0320   34.7520   97.1540 C.2   160  GLN160      0.2608
    158  OE1       69.9550   34.5450   97.6920 O.2   160  GLN160     -0.2717
    159  NE2       71.6600   33.8360   96.4340 N.am  160  GLN160     -0.0878
    160  N         65.4040   39.5270   94.1220 N.3   163  PHE163     -0.1241
    161  CA        65.2320   40.0090   92.7600 C.3   163  PHE163      0.1605
    162  C         64.8010   41.4600   92.5670 C.2   163  PHE163      0.2264
    163  O         65.2230   42.1050   91.6130 O.2   163  PHE163     -0.2867
    164  CB        64.3200   39.0760   91.9690 C.3   163  PHE163      0.0534
    165  CG        64.7450   38.9030   90.5460 C.ar  163  PHE163     -0.0203
    166  CD1       65.8200   38.0730   90.2270 C.ar  163  PHE163     -0.0042
    167  CD2       64.1130   39.6060   89.5220 C.ar  163  PHE163     -0.0042
    168  CE1       66.2650   37.9510   88.8990 C.ar  163  PHE163     -0.0003
    169  CE2       64.5520   39.4880   88.1970 C.ar  163  PHE163     -0.0003
    170  CZ        65.6290   38.6630   87.8870 C.ar  163  PHE163     -0.0000
    171  N         69.0430   37.7720   83.0460 N.3   174  TYR174     -0.1241
    172  CA        68.7340   36.5250   83.7390 C.3   174  TYR174      0.1605
    173  C         67.3630   35.9660   83.3720 C.2   174  TYR174      0.2264
    174  O         67.2280   34.7960   83.0300 O.2   174  TYR174     -0.2867
    175  CB        68.7930   36.7340   85.2640 C.3   174  TYR174      0.0534
    176  CG        68.4590   35.4940   86.0840 C.ar  174  TYR174     -0.0201
    177  CD1       67.1380   35.1890   86.4240 C.ar  174  TYR174     -0.0009
    178  CD2       69.4620   34.6120   86.4840 C.ar  174  TYR174     -0.0009
    179  CE1       66.8220   34.0260   87.1270 C.ar  174  TYR174      0.0417
    180  CE2       69.1650   33.4520   87.1880 C.ar  174  TYR174      0.0417
    181  CZ        67.8450   33.1570   87.5070 C.ar  174  TYR174      0.1957
    182  OH        67.5470   31.9750   88.1590 O.3   174  TYR174     -0.2866
    183  N         66.2290   32.8110   80.6510 N.3   178  ASP178     -0.1239
    184  CA        65.4590   31.6830   81.1750 C.3   178  ASP178      0.1674
    185  C         64.4150   31.2820   80.1670 C.2   178  ASP178      0.2266
    186  O         64.3480   30.1320   79.7630 O.2   178  ASP178     -0.2867
    187  CB        64.7320   32.0550   82.4770 C.3   178  ASP178      0.1410
    188  CG        65.6330   32.0080   83.6950 C.2   178  ASP178      0.3668
    189  OD1       66.8150   31.6270   83.5540 O.co2 178  ASP178     -0.2456
    190  OD2       65.1600   32.3470   84.8000 O.co2 178  ASP178     -0.2456
    191  N         57.3860   20.3300  100.1330 N.3   331  SER331     -0.1217
    192  CA        57.8190   20.3960   98.7360 C.3   331  SER331      0.1889
    193  C         57.8930   19.0170   98.0690 C.2   331  SER331      0.2288
    194  O         58.6670   18.1540   98.4810 O.2   331  SER331     -0.2866
    195  CB        59.1960   21.0710   98.6280 C.3   331  SER331      0.2089
    196  OG        59.2500   22.2970   99.3450 O.3   331  SER331     -0.2183
    197  N         58.7590   16.7200   94.7610 N.3   333  HIS333     -0.1241
    198  CA        59.6570   16.7650   93.6100 C.3   333  HIS333      0.1621
    199  C         59.1840   15.7620   92.5570 C.2   333  HIS333      0.2264
    200  O         59.2040   14.5510   92.7930 O.2   333  HIS333     -0.2867
    201  CB        61.0710   16.4650   94.0710 C.3   333  HIS333      0.0745
    202  CG        61.5490   17.3780   95.1520 C.ar  333  HIS333      0.0817
    203  ND1       61.9260   18.6810   94.9090 N.ar  333  HIS333     -0.2268
    204  CD2       61.7330   17.1820   96.4780 C.ar  333  HIS333      0.1154
    205  CE1       62.3280   19.2440   96.0310 C.ar  333  HIS333      0.1986
    206  NE2       62.2230   18.3530   97.0010 N.ar  333  HIS333     -0.2212
@<TRIPOS>BOND
     1   186   185    2
     2   185   184    1
     3   183   184    1
     4   184   187    1
     5     1     2    1
     6   121   120    1
     7   121   122    1
     8   118   117    2
     9   120   119    1
    10    99   100    1
    11   187   188    1
    12    62    63    1
    13    69    68    2
    14   126   125    2
    15   174   173    2
    16     5     2    1
    17     5     6    1
    18   171   172    1
    19   117   116    1
    20   117   123   am
    21   101   100    1
    22   101   102    2
    23    66    63    1
    24    66    67    1
    25     2     3    1
    26    63    64    1
    27   100   103    1
    28   173   172    1
    29   116   119    1
    30   116   115    1
    31   125   124    1
    32   189   188   ar
    33     4     3    2
    34   188   190   ar
    35   172   175    1
    36    68    67    1
    37    68    70   am
    38   124   123    1
    39   124   127    1
    40   110   109    2
    41     3     9   am
    42     6     8   ar
    43     6     7   ar
    44   103   104    1
    45   115   109   am
    46    64    71   am
    47    64    65    2
    48   109   108    1
    49    71    72    1
    50   175   176    1
    51   127   128    1
    52     9    10    1
    53   128   130   ar
    54   128   129   ar
    55   104   105    1
    56   107   108    1
    57    24    22   ar
    58   176   177   ar
    59   176   178   ar
    60   108   111    1
    61    98    96   ar
    62    97    96   ar
    63    96    95    1
    64    72    73    1
    65    72    75    1
    66   177   179   ar
    67    10    13    1
    68    10    11    1
    69   178   180   ar
    70    15    13    1
    71    73    74    2
    72    95    92    1
    73   114   112   ar
    74    21    22    1
    75    21    20    1
    76    22    23   ar
    77   179   181   ar
    78   112   111    1
    79   112   113   ar
    80   180   181   ar
    81    13    14    1
    82   106   105    1
    83    11    12    2
    84    11    16   am
    85   181   182    1
    86    75    76    1
    87    16    17    1
    88   170   169   ar
    89   170   168   ar
    90    92    93    1
    91    92    91    1
    92   169   167   ar
    93    20    17    1
    94    93    94    2
    95    17    18    1
    96    91    81   am
    97    76    77    2
    98    76    78   am
    99   168   166   ar
   100   131   132    1
   101   167   165   ar
   102    19    18    2
   103    79    80    1
   104    18    25   am
   105    81    80    1
   106    81    82    2
   107   166   165   ar
   108   132   135    1
   109   132   133    1
   110   165   164    1
   111    86    88   ar
   112    86    84   ar
   113    80    83    1
   114    83    84    1
   115   135   136    1
   116   133   134    2
   117   133   142   am
   118    25    26    1
   119   137   136   ar
   120   137   139   ar
   121    88    89   ar
   122    84    85   ar
   123   142   143    1
   124   163   162    2
   125   144   145    2
   126   144   143    1
   127   136   138   ar
   128   139   141   ar
   129   164   161    1
   130   149   148   ar
   131    31    29    1
   132   143   146    1
   133    26    29    1
   134    26    27    1
   135   199   200    2
   136   199   198    1
   137   162   161    1
   138    89    90    1
   139    89    87   ar
   140    85    87   ar
   141   161   160    1
   142   146   147    1
   143    29    30    1
   144    28    27    2
   145   138   140   ar
   146   141   140   ar
   147   148   147    1
   148   148   150   ar
   149    27    32   am
   150   198   201    1
   151   198   197    1
   152    60    59    2
   153   201   202    1
   154    32    33    1
   155   203   202   ar
   156   203   205   ar
   157    59    61   am
   158    59    58    1
   159   202   204   ar
   160    53    51    1
   161    33    36    1
   162    33    34    1
   163    43    42    2
   164   205   206   ar
   165    58    55    1
   166   159   157   am
   167   204   206   ar
   168    36    37    1
   169    40    34   am
   170    40    41    1
   171    51    52    1
   172    51    50    1
   173    57    56    2
   174    34    35    2
   175    55    56    1
   176    55    54    1
   177    42    46   am
   178    42    41    1
   179    47    50    1
   180    47    46    1
   181    47    48    1
   182    49    48    2
   183   157   156    1
   184   157   158    2
   185    37    38   ar
   186    37    39   ar
   187   156   155    1
   188    41    44    1
   189   193   194    2
   190   193   192    1
   191   153   152    1
   192   153   154    2
   193   195   192    1
   194   195   196    1
   195   155   152    1
   196    44    45    1
   197   192   191    1
   198   152   151    1
