@<TRIPOS>MOLECULE
tmp/2kzzB00.pdb
 202 195 0 0 0
SMALL
GASTEIGER

@<TRIPOS>ATOM
      1  N         57.3890   32.5860   82.2230 N.3    32  ASP32      -0.1225
      2  CA        58.0690   32.4760   83.5070 C.3    32  ASP32       0.1805
      3  C         57.6830   33.6080   84.4580 C.2    32  ASP32       0.2598
      4  O         57.1660   34.6410   84.0250 O.2    32  ASP32      -0.2718
      5  CB        59.5810   32.5220   83.2340 C.3    32  ASP32       0.1424
      6  CG        60.3990   31.9550   84.3570 C.2    32  ASP32       0.3668
      7  OD1       59.9860   30.9370   84.9310 O.co2  32  ASP32      -0.2456
      8  OD2       61.4630   32.5140   84.6660 O.co2  32  ASP32      -0.2456
      9  N         57.8490   33.3700   85.7630 N.am   33  THR33      -0.1939
     10  CA        57.5730   34.3880   86.7850 C.3    33  THR33       0.2028
     11  C         58.8080   34.5150   87.6730 C.2    33  THR33       0.2642
     12  O         59.5620   33.5510   87.8550 O.2    33  THR33      -0.2714
     13  CB        56.3440   34.0580   87.7170 C.3    33  THR33       0.1808
     14  OG1       56.6130   32.8800   88.4730 O.3    33  THR33      -0.2208
     15  CG2       55.0740   33.8500   86.9280 C.3    33  THR33       0.0379
     16  N         59.0700   35.7300   88.1330 N.am   34  GLU34      -0.1963
     17  CA        60.1680   35.9460   89.0530 C.3    34  GLU34       0.1733
     18  C         59.4750   36.4870   90.3070 C.2    34  GLU34       0.2617
     19  O         58.5170   37.2570   90.2080 O.2    34  GLU34      -0.2715
     20  CB        61.1840   36.9380   88.4890 C.3    34  GLU34       0.0429
     21  CG        61.8110   36.5140   87.1500 C.3    34  GLU34       0.1163
     22  CD        62.5970   35.2050   87.2090 C.2    34  GLU34       0.3649
     23  OE1       63.0480   34.8050   88.3040 O.co2  34  GLU34      -0.2457
     24  OE2       62.7750   34.5810   86.1490 O.co2  34  GLU34      -0.2457
     25  N         59.9190   36.0460   91.4840 N.am   35  THR35      -0.1937
     26  CA        59.2980   36.4650   92.7440 C.3    35  THR35       0.2028
     27  C         60.3320   36.9330   93.7610 C.2    35  THR35       0.2642
     28  O         61.5330   36.7930   93.5350 O.2    35  THR35      -0.2714
     29  CB        58.5460   35.2860   93.3650 C.3    35  THR35       0.1808
     30  OG1       59.5100   34.3080   93.7640 O.3    35  THR35      -0.2208
     31  CG2       57.5790   34.6400   92.3540 C.3    35  THR35       0.0379
     32  N         59.8690   37.4610   94.8930 N.am   36  ASP36      -0.1957
     33  CA        60.8090   37.8940   95.9200 C.3    36  ASP36       0.1840
     34  C         61.1360   36.7850   96.9130 C.2    36  ASP36       0.2623
     35  O         61.9310   36.9900   97.8210 O.2    36  ASP36      -0.2715
     36  CB        60.3310   39.1520   96.6690 C.3    36  ASP36       0.1450
     37  CG        59.0310   38.9420   97.4370 C.2    36  ASP36       0.3671
     38  OD1       58.6150   37.7830   97.6340 O.co2  36  ASP36      -0.2456
     39  OD2       58.4200   39.9600   97.8430 O.co2  36  ASP36      -0.2456
     40  N         60.5500   35.6020   96.7260 N.am   37  SER37      -0.1936
     41  CA        60.7990   34.4910   97.6390 C.3    37  SER37       0.2055
     42  C         60.5020   33.1170   97.0740 C.2    37  SER37       0.2642
     43  O         59.6280   32.9490   96.2420 O.2    37  SER37      -0.2714
     44  CB        59.9660   34.6760   98.9140 C.3    37  SER37       0.2130
     45  OG        59.9490   33.4880   99.6770 O.3    37  SER37      -0.2179
     46  N         61.1980   32.1180   97.5930 N.am   38  LEU38      -0.1977
     47  CA        60.9580   30.7430   97.1830 C.3    38  LEU38       0.1596
     48  C         59.6270   30.2370   97.7450 C.2    38  LEU38       0.2287
     49  O         59.0110   29.3240   97.1840 O.2    38  LEU38      -0.2864
     50  CB        62.0700   29.8350   97.6880 C.3    38  LEU38       0.0297
     51  CG        63.3310   29.7760   96.8480 C.3    38  LEU38       0.0022
     52  CD1       64.4150   29.0710   97.6400 C.3    38  LEU38       0.0001
     53  CD2       63.0200   29.0650   95.5250 C.3    38  LEU38       0.0001
     54  N         59.6420   25.6850   82.7650 N.3    96  GLN96      -0.1231
     55  CA        60.4620   24.8100   83.5880 C.3    96  GLN96       0.1698
     56  C         59.8480   24.8660   84.9950 C.2    96  GLN96       0.2592
     57  O         59.8850   25.9150   85.6470 O.2    96  GLN96      -0.2718
     58  CB        61.8830   25.3390   83.6580 C.3    96  GLN96       0.0381
     59  CG        62.7650   24.5740   84.6290 C.3    96  GLN96       0.0905
     60  CD        63.2560   23.2370   84.0790 C.2    96  GLN96       0.2608
     61  OE1       63.2780   23.0240   82.8680 O.2    96  GLN96      -0.2717
     62  NE2       63.6760   22.3380   84.9680 N.am   96  GLN96      -0.0878
     63  N         59.3020   23.7420   85.4540 N.am   97  ASN97      -0.1974
     64  CA        58.6490   23.6440   86.7670 C.3    97  ASN97       0.1688
     65  C         57.4850   24.5970   86.8310 C.2    97  ASN97       0.2292
     66  O         57.4750   25.5510   87.5990 O.2    97  ASN97      -0.2864
     67  CB        59.6050   23.9440   87.9230 C.3    97  ASN97       0.1181
     68  CG        59.0080   23.5660   89.2710 C.2    97  ASN97       0.2629
     69  OD1       58.0480   22.7900   89.3320 O.2    97  ASN97      -0.2716
     70  ND2       59.5690   24.1030   90.3520 N.am   97  ASN97      -0.0877
     71  N         54.8150   24.1460   88.0100 N.3    99  LYS99      -0.1231
     72  CA        54.1020   24.0380   89.2910 C.3    99  LYS99       0.1693
     73  C         54.2360   25.3100   90.1030 C.2    99  LYS99       0.2592
     74  O         53.2490   25.8510   90.6080 O.2    99  LYS99      -0.2718
     75  CB        54.6340   22.8750   90.1230 C.3    99  LYS99       0.0285
     76  CG        53.8230   22.5860   91.3950 C.3    99  LYS99       0.0035
     77  CD        54.5580   21.5930   92.2660 C.3    99  LYS99       0.0206
     78  CE        55.9180   22.1630   92.6250 C.3    99  LYS99       0.1093
     79  NZ        56.6740   21.2280   93.4770 N.3    99  LYS99      -0.1314
     80  N         55.4690   25.7820   90.2150 N.am  100  TYR100     -0.1962
     81  CA        55.7690   26.9890   90.9640 C.3   100  TYR100      0.1771
     82  C         55.0560   28.2180   90.3770 C.2   100  TYR100      0.2619
     83  O         54.5330   29.0830   91.0970 O.2   100  TYR100     -0.2715
     84  CB        57.2820   27.2070   90.9540 C.3   100  TYR100      0.0574
     85  CG        57.7150   28.4530   91.6650 C.ar  100  TYR100     -0.0198
     86  CD1       58.0030   28.4370   93.0290 C.ar  100  TYR100     -0.0009
     87  CD2       57.8600   29.6440   90.9800 C.ar  100  TYR100     -0.0009
     88  CE1       58.4380   29.5800   93.6880 C.ar  100  TYR100      0.0417
     89  CE2       58.2950   30.7840   91.6220 C.ar  100  TYR100      0.0417
     90  CZ        58.5800   30.7490   92.9720 C.ar  100  TYR100      0.1957
     91  OH        59.0280   31.8820   93.5940 O.3   100  TYR100     -0.2866
     92  N         55.0840   28.2960   89.0510 N.am  101  ASP101     -0.1971
     93  CA        54.4890   29.3890   88.3080 C.3   101  ASP101      0.1709
     94  C         52.9730   29.4780   88.4420 C.2   101  ASP101      0.2293
     95  O         52.4410   30.5540   88.7090 O.2   101  ASP101     -0.2864
     96  CB        54.9210   29.2760   86.8410 C.3   101  ASP101      0.1436
     97  CG        56.4100   29.4800   86.6770 C.2   101  ASP101      0.3671
     98  OD1       56.8190   30.6330   86.8330 O.co2 101  ASP101     -0.2456
     99  OD2       57.1770   28.5230   86.4520 O.co2 101  ASP101     -0.2456
    100  N         60.9220   20.3520   82.5600 N.3   120  MET120     -0.1245
    101  CA        61.4850   19.5260   83.6170 C.3   120  MET120      0.1570
    102  C         60.9260   18.1080   83.4650 C.2   120  MET120      0.2261
    103  O         61.6470   17.1060   83.5820 O.2   120  MET120     -0.2867
    104  CB        61.1190   20.0890   84.9990 C.3   120  MET120      0.0387
    105  CG        61.6380   19.2490   86.1640 C.3   120  MET120      0.0595
    106  SD        60.9630   19.8510   87.7180 S.3   120  MET120     -0.1393
    107  CE        59.3660   19.0950   87.6920 C.3   120  MET120      0.0692
    108  N         70.3500   15.4040   86.4540 N.3   132  ARG132     -0.1245
    109  CA        69.4640   16.3730   87.0680 C.3   132  ARG132      0.1563
    110  C         68.5650   17.0120   86.0220 C.2   132  ARG132      0.2260
    111  O         69.0110   17.2990   84.9160 O.2   132  ARG132     -0.2867
    112  CB        70.2830   17.4110   87.8210 C.3   132  ARG132      0.0307
    113  CG        71.0780   16.8060   88.9700 C.3   132  ARG132      0.0489
    114  CD        71.4950   17.8690   89.9550 C.3   132  ARG132      0.2205
    115  NE        70.3290   18.6330   90.3910 N.pl3 132  ARG132     -0.0865
    116  CZ        70.3610   19.9120   90.7560 C.cat 132  ARG132      0.5346
    117  NH1       71.5110   20.5850   90.7440 N.pl3 132  ARG132      0.1354
    118  NH2       69.2370   20.5240   91.1150 N.pl3 132  ARG132      0.1354
    119  N         66.8810   20.0100   86.2670 N.3   134  ASP134     -0.1225
    120  CA        66.7200   21.4530   86.4460 C.3   134  ASP134      0.1805
    121  C         67.1970   22.1510   85.1540 C.2   134  ASP134      0.2598
    122  O         68.0500   21.6240   84.4280 O.2   134  ASP134     -0.2718
    123  CB        67.5590   21.9410   87.6280 C.3   134  ASP134      0.1424
    124  CG        69.0320   21.7220   87.4170 C.2   134  ASP134      0.3668
    125  OD1       69.4550   20.5490   87.4640 O.co2 134  ASP134     -0.2456
    126  OD2       69.7640   22.7100   87.1900 O.co2 134  ASP134     -0.2456
    127  N         66.7070   23.3600   84.9050 N.am  135  MET135     -0.1965
    128  CA        67.0640   24.0770   83.6970 C.3   135  MET135      0.1736
    129  C         68.5410   24.2860   83.4450 C.2   135  MET135      0.2616
    130  O         68.9780   24.2970   82.2930 O.2   135  MET135     -0.2715
    131  CB        66.3860   25.4390   83.6490 C.3   135  MET135      0.0427
    132  CG        66.3520   26.0340   82.2330 C.3   135  MET135      0.0599
    133  SD        65.8200   27.7290   82.2310 S.3   135  MET135     -0.1393
    134  CE        67.3890   28.4700   82.6490 C.3   135  MET135      0.0692
    135  N         69.3100   24.4970   84.5030 N.am  136  ASP136     -0.1971
    136  CA        70.7250   24.7380   84.3180 C.3   136  ASP136      0.1709
    137  C         71.4380   23.4920   83.8310 C.2   136  ASP136      0.2293
    138  O         72.2610   23.5520   82.9220 O.2   136  ASP136     -0.2864
    139  CB        71.3150   25.2850   85.5980 C.3   136  ASP136      0.1436
    140  CG        70.5910   26.5350   86.0580 C.2   136  ASP136      0.3671
    141  OD1       69.3470   26.4790   86.2320 O.co2 136  ASP136     -0.2456
    142  OD2       71.2570   27.5760   86.2230 O.co2 136  ASP136     -0.2456
    143  N         71.1360   31.8380   89.5920 N.3   150  PHE150     -0.1227
    144  CA        70.4970   32.7830   90.5060 C.3   150  PHE150      0.1736
    145  C         71.5310   33.5160   91.3650 C.2   150  PHE150      0.2595
    146  O         71.4210   34.7310   91.5550 O.2   150  PHE150     -0.2718
    147  CB        69.4500   32.0900   91.3700 C.3   150  PHE150      0.0547
    148  CG        68.5670   33.0450   92.1160 C.ar  150  PHE150     -0.0202
    149  CD1       67.5580   33.7380   91.4540 C.ar  150  PHE150     -0.0042
    150  CD2       68.7550   33.2750   93.4730 C.ar  150  PHE150     -0.0042
    151  CE1       66.7530   34.6460   92.1300 C.ar  150  PHE150     -0.0003
    152  CE2       67.9520   34.1840   94.1620 C.ar  150  PHE150     -0.0003
    153  CZ        66.9520   34.8710   93.4940 C.ar  150  PHE150     -0.0000
    154  N         72.5800   32.7990   91.7830 N.am  151  GLU151     -0.1979
    155  CA        73.6620   33.3640   92.5980 C.3   151  GLU151      0.1602
    156  C         74.3740   34.4940   91.8680 C.2   151  GLU151      0.2287
    157  O         74.7610   35.4770   92.4900 O.2   151  GLU151     -0.2864
    158  CB        74.7150   32.3010   92.9270 C.3   151  GLU151      0.0415
    159  CG        74.2580   31.1900   93.8530 C.3   151  GLU151      0.1163
    160  CD        73.0060   30.4640   93.3530 C.2   151  GLU151      0.3649
    161  OE1       73.0060   29.9580   92.2020 O.co2 151  GLU151     -0.2457
    162  OE2       72.0130   30.4100   94.1180 O.co2 151  GLU151     -0.2457
    163  N         72.3110   37.9970  100.4040 N.3   160  GLN160     -0.1245
    164  CA        71.8300   37.7150   99.0560 C.3   160  GLN160      0.1566
    165  C         70.6320   38.5990   98.7890 C.2   160  GLN160      0.2260
    166  O         69.8170   38.8130   99.6790 O.2   160  GLN160     -0.2867
    167  CB        71.3920   36.2570   98.9450 C.3   160  GLN160      0.0367
    168  CG        71.0530   35.8410   97.5270 C.3   160  GLN160      0.0905
    169  CD        70.4470   34.4570   97.4280 C.2   160  GLN160      0.2608
    170  OE1       69.4070   34.1740   98.0200 O.2   160  GLN160     -0.2717
    171  NE2       71.0690   33.6020   96.6310 N.am  160  GLN160     -0.0878
    172  N         64.9070   39.1390   94.2580 N.3   163  PHE163     -0.1241
    173  CA        64.7000   39.6160   92.9060 C.3   163  PHE163      0.1605
    174  C         64.2960   41.0740   92.6860 C.2   163  PHE163      0.2264
    175  O         64.7640   41.7120   91.7480 O.2   163  PHE163     -0.2867
    176  CB        63.7790   38.6740   92.1370 C.3   163  PHE163      0.0534
    177  CG        64.1920   38.4980   90.7120 C.ar  163  PHE163     -0.0203
    178  CD1       65.2620   37.6790   90.3900 C.ar  163  PHE163     -0.0042
    179  CD2       63.5800   39.2360   89.7040 C.ar  163  PHE163     -0.0042
    180  CE1       65.7290   37.6000   89.0790 C.ar  163  PHE163     -0.0003
    181  CE2       64.0340   39.1670   88.3930 C.ar  163  PHE163     -0.0003
    182  CZ        65.1120   38.3520   88.0760 C.ar  163  PHE163     -0.0000
    183  N         68.5050   37.4690   83.2690 N.3   174  TYR174     -0.1241
    184  CA        68.1920   36.2060   83.9250 C.3   174  TYR174      0.1605
    185  C         66.8060   35.6570   83.5310 C.2   174  TYR174      0.2264
    186  O         66.6710   34.5100   83.0900 O.2   174  TYR174     -0.2867
    187  CB        68.2360   36.3990   85.4480 C.3   174  TYR174      0.0534
    188  CG        67.8410   35.1730   86.2540 C.ar  174  TYR174     -0.0201
    189  CD1       68.8050   34.2370   86.6360 C.ar  174  TYR174     -0.0009
    190  CD2       66.5170   34.9590   86.6590 C.ar  174  TYR174     -0.0009
    191  CE1       68.4720   33.1390   87.3950 C.ar  174  TYR174      0.0417
    192  CE2       66.1790   33.8530   87.4350 C.ar  174  TYR174      0.0417
    193  CZ        67.1670   32.9540   87.7920 C.ar  174  TYR174      0.1957
    194  OH        66.8920   31.8630   88.5610 O.3   174  TYR174     -0.2866
    195  N         65.6680   32.5260   80.9180 N.3   178  ASP178     -0.1239
    196  CA        64.9130   31.3840   81.4450 C.3   178  ASP178      0.1674
    197  C         63.8410   31.0350   80.4260 C.2   178  ASP178      0.2266
    198  O         63.6590   29.8760   80.0490 O.2   178  ASP178     -0.2867
    199  CB        64.2100   31.7470   82.7670 C.3   178  ASP178      0.1410
    200  CG        65.1100   31.6130   83.9880 C.2   178  ASP178      0.3668
    201  OD1       66.3110   31.2880   83.8370 O.co2 178  ASP178     -0.2456
    202  OD2       64.6000   31.8320   85.1090 O.co2 178  ASP178     -0.2456
@<TRIPOS>BOND
     1   198   197    2
     2   197   196    1
     3   195   196    1
     4   196   199    1
     5     1     2    1
     6   133   132    1
     7   133   134    1
     8   132   131    1
     9   130   129    2
    10   100   101    1
    11    54    55    1
    12   199   200    1
    13    61    60    2
    14   138   137    2
    15   186   185    2
    16     5     2    1
    17     5     6    1
    18   183   184    1
    19   129   128    1
    20   129   135   am
    21   102   103    2
    22   102   101    1
    23     2     3    1
    24   185   184    1
    25    55    58    1
    26    55    56    1
    27   101   104    1
    28   131   128    1
    29    58    59    1
    30   128   127    1
    31   137   136    1
    32   201   200   ar
    33   184   187    1
    34   200   202   ar
    35     4     3    2
    36    60    59    1
    37    60    62   am
    38   136   135    1
    39   136   139    1
    40     6     8   ar
    41     6     7   ar
    42   122   121    2
    43     3     9   am
    44   127   121   am
    45   111   110    2
    46    56    63   am
    47    56    57    2
    48   104   105    1
    49   121   120    1
    50   187   188    1
    51    63    64    1
    52   139   140    1
    53     9    10    1
    54   110   109    1
    55   140   142   ar
    56   140   141   ar
    57    24    22   ar
    58   105   106    1
    59   188   189   ar
    60   188   190   ar
    61   119   120    1
    62   120   123    1
    63    99    97   ar
    64   108   109    1
    65   189   191   ar
    66   190   192   ar
    67    97    98   ar
    68    97    96    1
    69    64    65    1
    70    64    67    1
    71    10    11    1
    72    10    13    1
    73    65    66    2
    74    96    93    1
    75    15    13    1
    76   109   112    1
    77    21    22    1
    78    21    20    1
    79   126   124   ar
    80    22    23   ar
    81   191   193   ar
    82   124   125   ar
    83   124   123    1
    84   192   193   ar
    85    11    12    2
    86    11    16   am
    87   107   106    1
    88    13    14    1
    89   193   194    1
    90   112   113    1
    91    67    68    1
    92    71    72    1
    93   182   181   ar
    94   182   180   ar
    95    16    17    1
    96    93    94    1
    97    93    92    1
    98   181   179   ar
    99    94    95    2
   100    20    17    1
   101   113   114    1
   102    92    82   am
   103    17    18    1
   104   180   178   ar
   105    68    69    2
   106    68    70   am
   107    72    73    1
   108    72    75    1
   109   143   144    1
   110   179   177   ar
   111   114   115    1
   112    73    80   am
   113    73    74    2
   114    75    76    1
   115    19    18    2
   116    80    81    1
   117    18    25   am
   118    82    81    1
   119    82    83    2
   120   178   177   ar
   121   115   116    2
   122   144   145    1
   123   144   147    1
   124   177   176    1
   125   117   116    1
   126   116   118    1
   127    84    81    1
   128    84    85    1
   129    87    89   ar
   130    87    85   ar
   131   145   146    2
   132   145   154   am
   133   147   148    1
   134    76    77    1
   135   149   148   ar
   136   149   151   ar
   137    25    26    1
   138    89    90   ar
   139    85    86   ar
   140   175   174    2
   141   154   155    1
   142   156   157    2
   143   156   155    1
   144   148   150   ar
   145   151   153   ar
   146   176   173    1
   147   161   160   ar
   148    77    78    1
   149    31    29    1
   150   155   158    1
   151    78    79    1
   152   174   173    1
   153    26    29    1
   154    26    27    1
   155   173   172    1
   156   158   159    1
   157    90    91    1
   158    90    88   ar
   159    86    88   ar
   160   160   159    1
   161   160   162   ar
   162    29    30    1
   163   150   152   ar
   164   153   152   ar
   165    28    27    2
   166    27    32   am
   167    32    33    1
   168    53    51    1
   169    33    36    1
   170    33    34    1
   171    43    42    2
   172   171   169   am
   173    36    37    1
   174    40    34   am
   175    40    41    1
   176    51    52    1
   177    51    50    1
   178    34    35    2
   179    42    46   am
   180    42    41    1
   181    47    46    1
   182    47    50    1
   183    47    48    1
   184    49    48    2
   185   169   168    1
   186   169   170    2
   187    37    38   ar
   188    37    39   ar
   189   168   167    1
   190    41    44    1
   191   165   164    1
   192   165   166    2
   193    44    45    1
   194   167   164    1
   195   164   163    1
