@<TRIPOS>MOLECULE
tmp/2l1rA00.pdb
 103 95 0 0 0
SMALL
GASTEIGER

@<TRIPOS>ATOM
      1  N         54.0760   -7.7140    0.1460 N.3    27  PHE27      -0.1241
      2  CA        54.5510   -6.8490   -0.9800 C.3    27  PHE27       0.1605
      3  C         55.3880   -7.6930   -1.9490 C.2    27  PHE27       0.2264
      4  O         55.1770   -7.6700   -3.1450 O.2    27  PHE27      -0.2867
      5  CB        55.4140   -5.7620   -0.3280 C.3    27  PHE27       0.0534
      6  CG        54.7490   -4.4160   -0.4960 C.ar   27  PHE27      -0.0203
      7  CD1       54.6490   -3.8380   -1.7680 C.ar   27  PHE27      -0.0042
      8  CD2       54.2320   -3.7470    0.6180 C.ar   27  PHE27      -0.0042
      9  CE1       54.0300   -2.5930   -1.9230 C.ar   27  PHE27      -0.0003
     10  CE2       53.6130   -2.5030    0.4630 C.ar   27  PHE27      -0.0003
     11  CZ        53.5120   -1.9260   -0.8080 C.ar   27  PHE27      -0.0000
     12  N         61.3010   -6.7460   -2.3970 N.3    36  ILE36      -0.1245
     13  CA        60.3040   -5.9490   -3.1820 C.3    36  ILE36       0.1561
     14  C         60.9830   -5.3060   -4.4010 C.2    36  ILE36       0.2260
     15  O         61.8390   -4.4520   -4.2700 O.2    36  ILE36      -0.2867
     16  CB        59.7790   -4.8830   -2.2090 C.3    36  ILE36       0.0252
     17  CG1       58.9350   -5.5620   -1.1250 C.3    36  ILE36       0.0019
     18  CG2       58.9090   -3.8690   -2.9590 C.3    36  ILE36       0.0019
     19  CD1       58.6780   -4.5800    0.0210 C.3    36  ILE36       0.0001
     20  N         56.1930   -3.7360   -6.3790 N.3    41  LEU41      -0.1245
     21  CA        55.6640   -2.3870   -6.0080 C.3    41  LEU41       0.1561
     22  C         54.5800   -1.9650   -7.0130 C.2    41  LEU41       0.2260
     23  O         53.5610   -1.4110   -6.6420 O.2    41  LEU41      -0.2867
     24  CB        56.8850   -1.4530   -6.0700 C.3    41  LEU41       0.0270
     25  CG        56.4460    0.0080   -6.2580 C.3    41  LEU41       0.0019
     26  CD1       55.3930    0.3880   -5.2120 C.3    41  LEU41       0.0001
     27  CD2       57.6640    0.9210   -6.1040 C.3    41  LEU41       0.0001
     28  N         50.7020   -0.4300   -6.7680 N.3    45  MET45      -0.1245
     29  CA        50.4390    0.8710   -7.4680 C.3    45  MET45       0.1570
     30  C         49.0970    0.8020   -8.2100 C.2    45  MET45       0.2261
     31  O         48.3400    1.7540   -8.2300 O.2    45  MET45      -0.2867
     32  CB        51.5910    1.0370   -8.4670 C.3    45  MET45       0.0387
     33  CG        52.8510    1.5010   -7.7330 C.3    45  MET45       0.0595
     34  SD        52.9040    3.3080   -7.7160 S.3    45  MET45      -0.1393
     35  CE        54.2340    3.4770   -6.5030 C.3    45  MET45       0.0692
     36  N         62.5720    4.5920   -7.6260 N.3    60  MET60      -0.1245
     37  CA        62.2240    4.4800   -6.1750 C.3    60  MET60       0.1570
     38  C         63.1810    3.4980   -5.4840 C.2    60  MET60       0.2261
     39  O         63.6820    3.7630   -4.4090 O.2    60  MET60      -0.2867
     40  CB        60.7860    3.9360   -6.1450 C.3    60  MET60       0.0387
     41  CG        59.8110    5.0830   -5.8750 C.3    60  MET60       0.0595
     42  SD        58.1250    4.5470   -6.2600 S.3    60  MET60      -0.1393
     43  CE        57.9400    5.4620   -7.8100 C.3    60  MET60       0.0692
     44  N         66.6810    5.0720   -5.0350 N.3    63  GLU63      -0.1245
     45  CA        66.7480    6.1120   -3.9600 C.3    63  GLU63       0.1567
     46  C         66.9220    5.4680   -2.5740 C.2    63  GLU63       0.2260
     47  O         67.5950    6.0090   -1.7160 O.2    63  GLU63      -0.2867
     48  CB        65.4070    6.8460   -4.0410 C.3    63  GLU63       0.0388
     49  CG        65.4890    8.1600   -3.2560 C.3    63  GLU63       0.1160
     50  CD        64.4360    8.1630   -2.1460 C.2    63  GLU63       0.3649
     51  OE1       64.7310    7.6640   -1.0730 O.co2  63  GLU63      -0.2457
     52  OE2       63.3520    8.6700   -2.3870 O.co2  63  GLU63      -0.2457
     53  N         64.1970   -3.6570   -2.9660 N.3    72  VAL72      -0.1245
     54  CA        63.9500   -3.2100   -1.5590 C.3    72  VAL72       0.1561
     55  C         63.9330   -4.4190   -0.6130 C.2    72  VAL72       0.2260
     56  O         63.0280   -5.2350   -0.6420 O.2    72  VAL72      -0.2867
     57  CB        62.5810   -2.5080   -1.5940 C.3    72  VAL72       0.0252
     58  CG1       61.9510   -2.5040   -0.1980 C.3    72  VAL72       0.0019
     59  CG2       62.7650   -1.0630   -2.0610 C.3    72  VAL72       0.0019
     60  N         62.8850   -1.6460    3.0720 N.3    77  PHE77      -0.1241
     61  CA        61.4040   -1.4390    3.1130 C.3    77  PHE77       0.1605
     62  C         61.0250   -0.6810    4.3920 C.2    77  PHE77       0.2264
     63  O         60.2990    0.2950    4.3520 O.2    77  PHE77      -0.2867
     64  CB        60.8050   -2.8490    3.1160 C.3    77  PHE77       0.0534
     65  CG        59.2980   -2.7660    3.1640 C.ar   77  PHE77      -0.0203
     66  CD1       58.5910   -2.1700    2.1110 C.ar   77  PHE77      -0.0042
     67  CD2       58.6060   -3.2900    4.2620 C.ar   77  PHE77      -0.0042
     68  CE1       57.1940   -2.0990    2.1580 C.ar   77  PHE77      -0.0003
     69  CE2       57.2090   -3.2180    4.3080 C.ar   77  PHE77      -0.0003
     70  CZ        56.5030   -2.6230    3.2570 C.ar   77  PHE77      -0.0000
     71  N         62.4600    2.9070    4.2290 N.3    80  MET80      -0.1230
     72  CA        61.6470    3.8000    3.3470 C.3    80  MET80       0.1702
     73  C         60.3490    4.2070    4.0660 C.2    80  MET80       0.2592
     74  O         59.7890    5.2550    3.8060 O.2    80  MET80      -0.2718
     75  CB        61.3380    2.9480    2.1110 C.3    80  MET80       0.0401
     76  CG        60.6790    3.8100    1.0320 C.3    80  MET80       0.0596
     77  SD        60.9700    3.0680   -0.5960 S.3    80  MET80      -0.1393
     78  CE        60.2200    1.4550   -0.2600 C.3    80  MET80       0.0692
     79  N         59.8710    3.3790    4.9680 N.am   81  MET81      -0.1979
     80  CA        58.6140    3.7040    5.7110 C.3    81  MET81       0.1605
     81  C         58.8230    4.9110    6.6320 C.2    81  MET81       0.2287
     82  O         58.0990    5.8850    6.5530 O.2    81  MET81      -0.2864
     83  CB        58.3100    2.4540    6.5390 C.3    81  MET81       0.0413
     84  CG        57.6770    1.3940    5.6420 C.3    81  MET81       0.0598
     85  SD        55.9090    1.7330    5.4760 S.3    81  MET81      -0.1393
     86  CE        55.6510    0.7480    3.9870 C.3    81  MET81       0.0692
     87  N         60.9420    7.1720    6.4770 N.3    83  ARG83      -0.1231
     88  CA        61.2480    8.3840    5.6480 C.3    83  ARG83       0.1694
     89  C         59.9820    9.2340    5.4590 C.2    83  ARG83       0.2592
     90  O         59.9990   10.4350    5.6510 O.2    83  ARG83      -0.2718
     91  CB        61.7340    7.8350    4.3030 C.3    83  ARG83       0.0321
     92  CG        63.2640    7.7530    4.3030 C.3    83  ARG83       0.0489
     93  CD        63.7890    7.9810    2.8830 C.3    83  ARG83       0.2205
     94  NE        63.6090    9.4410    2.6310 N.pl3  83  ARG83      -0.0865
     95  CZ        62.8110    9.8460    1.6840 C.cat  83  ARG83       0.5346
     96  NH1       63.0790    9.5640    0.4430 N.pl3  83  ARG83       0.1354
     97  NH2       61.7470   10.5350    1.9830 N.pl3  83  ARG83       0.1354
     98  N         58.8810    8.6130    5.1040 N.am   84  CYS84      -0.1970
     99  CA        57.6050    9.3790    4.9250 C.3    84  CYS84       0.1712
    100  C         56.7700    9.3460    6.2210 C.2    84  CYS84       0.2296
    101  O         55.7360    9.9810    6.3150 O.2    84  CYS84      -0.2864
    102  CB        56.8660    8.6740    3.7830 C.3    84  CYS84       0.0983
    103  SG        57.6040    9.1540    2.2000 S.3    84  CYS84      -0.0798
@<TRIPOS>BOND
     1    32    33    1
     2    32    29    1
     3    31    30    2
     4    30    29    1
     5    43    42    1
     6    33    34    1
     7    34    35    1
     8    36    37    1
     9    29    28    1
    10    22    23    2
    11    22    21    1
    12    20    21    1
    13    42    41    1
    14    25    27    1
    15    25    24    1
    16    25    26    1
    17    37    40    1
    18    37    38    1
    19    40    41    1
    20    24    21    1
    21    38    39    2
    22    44    45    1
    23    14    15    2
    24    14    13    1
    25    48    45    1
    26    48    49    1
    27    45    46    1
    28    49    50    1
    29    13    12    1
    30    13    16    1
    31     4     3    2
    32    53    54    1
    33    18    16    1
    34    46    47    2
    35    52    50   ar
    36    16    17    1
    37    50    51   ar
    38    59    57    1
    39     3     2    1
    40     9     7   ar
    41     9    11   ar
    42     7     6   ar
    43    57    54    1
    44    57    58    1
    45    54    55    1
    46    17    19    1
    47     2     5    1
    48     2     1    1
    49    11    10   ar
    50    56    55    2
    51    77    78    1
    52    77    76    1
    53     6     5    1
    54     6     8   ar
    55    96    95    1
    56    10     8   ar
    57    76    75    1
    58    95    97    1
    59    95    94    2
    60    66    68   ar
    61    66    65   ar
    62    75    72    1
    63    68    70   ar
    64   103   102    1
    65    94    93    1
    66    93    92    1
    67    60    61    1
    68    61    64    1
    69    61    62    1
    70    64    65    1
    71    65    67   ar
    72    70    69   ar
    73    72    73    1
    74    72    71    1
    75   102    99    1
    76    74    73    2
    77    86    85    1
    78    73    79   am
    79    67    69   ar
    80    92    91    1
    81    91    88    1
    82    63    62    2
    83    99    98    1
    84    99   100    1
    85    79    80    1
    86    98    89   am
    87    89    88    1
    88    89    90    2
    89    85    84    1
    90    84    83    1
    91    88    87    1
    92    80    83    1
    93    80    81    1
    94   100   101    2
    95    82    81    2
