@<TRIPOS>MOLECULE
tmp/2l2sA00.pdb
 109 108 0 0 0
SMALL
GASTEIGER

@<TRIPOS>ATOM
      1  N         -7.9500   25.2800   -8.6430 N.3    37  TYR37      -0.1241
      2  CA        -6.8590   25.8520   -7.8630 C.3    37  TYR37       0.1605
      3  C         -7.2220   25.9140   -6.3820 C.2    37  TYR37       0.2264
      4  O         -8.3550   26.2340   -6.0200 O.2    37  TYR37      -0.2867
      5  CB        -6.5190   27.2520   -8.3750 C.3    37  TYR37       0.0534
      6  CG        -7.6170   28.2660   -8.1440 C.ar   37  TYR37      -0.0201
      7  CD1       -7.7540   28.9020   -6.9160 C.ar   37  TYR37      -0.0009
      8  CD2       -8.5180   28.5860   -9.1520 C.ar   37  TYR37      -0.0009
      9  CE1       -8.7560   29.8280   -6.7000 C.ar   37  TYR37       0.0417
     10  CE2       -9.5220   29.5110   -8.9450 C.ar   37  TYR37       0.0417
     11  CZ        -9.6370   30.1300   -7.7170 C.ar   37  TYR37       0.1957
     12  OH       -10.6370   31.0510   -7.5060 O.3    37  TYR37      -0.2866
     13  N         -7.1060   29.4810    1.9460 N.3    47  PHE47      -0.1227
     14  CA        -7.5630   30.8520    1.7480 C.3    47  PHE47       0.1736
     15  C         -8.1350   31.0380    0.3460 C.2    47  PHE47       0.2595
     16  O         -8.2680   32.1620   -0.1380 O.2    47  PHE47      -0.2718
     17  CB        -6.4120   31.8340    1.9760 C.3    47  PHE47       0.0547
     18  CG        -5.2100   31.5570    1.1200 C.ar   47  PHE47      -0.0202
     19  CD1       -5.1860   31.9470   -0.2100 C.ar   47  PHE47      -0.0042
     20  CD2       -4.1040   30.9080    1.6440 C.ar   47  PHE47      -0.0042
     21  CE1       -4.0810   31.6940   -1.0010 C.ar   47  PHE47      -0.0003
     22  CE2       -2.9960   30.6530    0.8580 C.ar   47  PHE47      -0.0003
     23  CZ        -2.9850   31.0450   -0.4660 C.ar   47  PHE47      -0.0000
     24  N         -8.4690   29.9270   -0.3020 N.am   48  ASP48      -0.1974
     25  CA        -9.0270   29.9660   -1.6490 C.3    48  ASP48       0.1709
     26  C         -9.3380   28.5590   -2.1490 C.2    48  ASP48       0.2293
     27  O         -8.4620   27.6950   -2.1870 O.2    48  ASP48      -0.2864
     28  CB        -8.0550   30.6580   -2.6060 C.3    48  ASP48       0.1436
     29  CG        -8.7520   31.6370   -3.5310 C.2    48  ASP48       0.3671
     30  OD1       -9.9800   31.5080   -3.7140 O.co2  48  ASP48      -0.2456
     31  OD2       -8.0680   32.5320   -4.0720 O.co2  48  ASP48      -0.2456
     32  N        -11.8830   26.3130  -13.0920 N.3    57  PHE57      -0.1241
     33  CA       -11.4680   27.6490  -13.5050 C.3    57  PHE57       0.1605
     34  C        -10.9540   27.6390  -14.9410 C.2    57  PHE57       0.2264
     35  O         -9.8500   27.1680  -15.2140 O.2    57  PHE57      -0.2867
     36  CB       -10.3830   28.1820  -12.5660 C.3    57  PHE57       0.0534
     37  CG        -9.8750   29.5420  -12.9490 C.ar   57  PHE57      -0.0203
     38  CD1      -10.7580   30.5800  -13.2020 C.ar   57  PHE57      -0.0042
     39  CD2       -8.5150   29.7840  -13.0550 C.ar   57  PHE57      -0.0042
     40  CE1      -10.2920   31.8320  -13.5550 C.ar   57  PHE57      -0.0003
     41  CE2       -8.0440   31.0340  -13.4070 C.ar   57  PHE57      -0.0003
     42  CZ        -8.9340   32.0600  -13.6570 C.ar   57  PHE57      -0.0000
     43  N         -3.4770   36.6040  -17.4120 N.3    65  MET65      -0.1230
     44  CA        -4.4800   36.6660  -16.3550 C.3    65  MET65       0.1702
     45  C         -4.1110   35.7400  -15.2000 C.2    65  MET65       0.2592
     46  O         -4.9750   35.3120  -14.4350 O.2    65  MET65      -0.2718
     47  CB        -5.8570   36.2900  -16.9060 C.3    65  MET65       0.0401
     48  CG        -6.5520   37.4300  -17.6330 C.3    65  MET65       0.0596
     49  SD        -6.1350   37.4930  -19.3860 S.3    65  MET65      -0.1393
     50  CE        -7.7680   37.5140  -20.1220 C.3    65  MET65       0.0692
     51  N         -2.8230   35.4330  -15.0810 N.am   66  VAL66      -0.1966
     52  CA        -2.3410   34.5580  -14.0200 C.3    66  VAL66       0.1727
     53  C         -0.9380   34.9560  -13.5750 C.2    66  VAL66       0.2616
     54  O         -0.3550   35.9060  -14.1000 O.2    66  VAL66      -0.2715
     55  CB        -2.3260   33.0850  -14.4690 C.3    66  VAL66       0.0290
     56  CG1       -3.6860   32.6810  -15.0180 C.3    66  VAL66       0.0023
     57  CG2       -1.2350   32.8550  -15.5040 C.3    66  VAL66       0.0023
     58  N         -0.4010   34.2240  -12.6050 N.am   67  ILE67      -0.1977
     59  CA         0.9350   34.5000  -12.0900 C.3    67  ILE67       0.1596
     60  C          1.9780   33.6220  -12.7720 C.2    67  ILE67       0.2287
     61  O          1.6440   32.6340  -13.4260 O.2    67  ILE67      -0.2864
     62  CB         1.0080   34.2780  -10.5680 C.3    67  ILE67       0.0276
     63  CG1        1.0540   32.7820  -10.2500 C.3    67  ILE67       0.0022
     64  CG2       -0.1780   34.9350   -9.8790 C.3    67  ILE67       0.0022
     65  CD1        1.0470   32.4790   -8.7680 C.3    67  ILE67       0.0001
     66  N          1.8100   30.1130  -12.2980 N.3    70  TRP70      -0.1241
     67  CA         0.6340   29.5690  -12.9670 C.3    70  TRP70       0.1605
     68  C          0.9590   29.1710  -14.4020 C.2    70  TRP70       0.2264
     69  O          0.7930   28.0130  -14.7880 O.2    70  TRP70      -0.2867
     70  CB        -0.5040   30.5910  -12.9540 C.3    70  TRP70       0.0550
     71  CG        -1.7150   30.1230  -12.2050 C.ar   70  TRP70       0.0003
     72  CD1       -2.9360   29.8160  -12.7330 C.ar   70  TRP70       0.0946
     73  CD2       -1.8200   29.9100  -10.7930 C.ar   70  TRP70       0.0152
     74  NE1       -3.7950   29.4250  -11.7340 N.ar   70  TRP70      -0.2442
     75  CE2       -3.1340   29.4740  -10.5350 C.ar   70  TRP70       0.0810
     76  CE3       -0.9320   30.0440   -9.7220 C.ar   70  TRP70       0.0012
     77  CZ2       -3.5790   29.1720   -9.2500 C.ar   70  TRP70       0.0191
     78  CZ3       -1.3760   29.7450   -8.4480 C.ar   70  TRP70       0.0001
     79  CH2       -2.6890   29.3120   -8.2210 C.ar   70  TRP70       0.0015
     80  N          1.3650   37.2340   -4.1950 N.3    93  TYR93      -0.1241
     81  CA         0.6310   38.4620   -3.9120 C.3    93  TYR93       0.1605
     82  C          1.4900   39.6890   -4.2020 C.2    93  TYR93       0.2264
     83  O          1.0440   40.6350   -4.8490 O.2    93  TYR93      -0.2867
     84  CB         0.1700   38.4810   -2.4540 C.3    93  TYR93       0.0534
     85  CG        -0.9860   37.5480   -2.1730 C.ar   93  TYR93      -0.0201
     86  CD1       -2.2930   37.9220   -2.4620 C.ar   93  TYR93      -0.0009
     87  CD2       -0.7720   36.2920   -1.6180 C.ar   93  TYR93      -0.0009
     88  CE1       -3.3520   37.0730   -2.2050 C.ar   93  TYR93       0.0417
     89  CE2       -1.8250   35.4360   -1.3600 C.ar   93  TYR93       0.0417
     90  CZ        -3.1130   35.8310   -1.6540 C.ar   93  TYR93       0.1957
     91  OH        -4.1650   34.9820   -1.3990 O.3    93  TYR93      -0.2866
     92  N         -4.8200   37.5780    5.9250 N.3   101  VAL101     -0.1245
     93  CA        -4.9420   36.2940    5.2460 C.3   101  VAL101      0.1561
     94  C         -3.5730   35.6710    4.9990 C.2   101  VAL101      0.2260
     95  O         -3.3040   34.5470    5.4260 O.2   101  VAL101     -0.2867
     96  CB        -5.6780   36.4380    3.9010 C.3   101  VAL101      0.0252
     97  CG1       -5.9220   35.0720    3.2760 C.3   101  VAL101      0.0019
     98  CG2       -6.9880   37.1890    4.0890 C.3   101  VAL101      0.0019
     99  N          0.0700   26.3590   -3.4320 N.3   110  PHE110     -0.1241
    100  CA        -1.1050   26.3190   -4.2950 C.3   110  PHE110      0.1605
    101  C         -1.1950   24.9850   -5.0290 C.2   110  PHE110      0.2264
    102  O         -0.2090   24.5040   -5.5860 O.2   110  PHE110     -0.2867
    103  CB        -1.0620   27.4680   -5.3040 C.3   110  PHE110      0.0534
    104  CG        -1.4590   28.7940   -4.7210 C.ar  110  PHE110     -0.0203
    105  CD1       -2.7930   29.1600   -4.6430 C.ar  110  PHE110     -0.0042
    106  CD2       -0.4980   29.6740   -4.2490 C.ar  110  PHE110     -0.0042
    107  CE1       -3.1610   30.3800   -4.1080 C.ar  110  PHE110     -0.0003
    108  CE2       -0.8600   30.8950   -3.7120 C.ar  110  PHE110     -0.0003
    109  CZ        -2.1930   31.2480   -3.6400 C.ar  110  PHE110     -0.0000
@<TRIPOS>BOND
     1    50    49    1
     2    49    48    1
     3    48    47    1
     4    43    44    1
     5    47    44    1
     6    44    45    1
     7    57    55    1
     8    35    34    2
     9    45    51   am
    10    45    46    2
    11    51    52    1
    12    56    55    1
    13    34    33    1
    14    69    68    2
    15    55    52    1
    16    68    67    1
    17    54    53    2
    18    52    53    1
    19    42    40   ar
    20    42    41   ar
    21    53    58   am
    22    40    38   ar
    23    33    32    1
    24    33    36    1
    25    61    60    2
    26    41    39   ar
    27    38    37   ar
    28    39    37   ar
    29    67    70    1
    30    67    66    1
    31    70    71    1
    32    37    36    1
    33    60    59    1
    34    72    71   ar
    35    72    74   ar
    36    58    59    1
    37    71    73   ar
    38    59    62    1
    39    74    75   ar
    40    73    75   ar
    41    73    76   ar
    42    62    63    1
    43    62    64    1
    44    75    77   ar
    45    63    65    1
    46    76    78   ar
    47    77    79   ar
    48     8    10   ar
    49     8     6   ar
    50    10    11   ar
    51     1     2    1
    52    78    79   ar
    53     5     6    1
    54     5     2    1
    55     6     7   ar
    56     2     3    1
    57    11    12    1
    58    11     9   ar
    59     7     9   ar
    60     3     4    2
    61   102   101    2
    62   103   104    1
    63   103   100    1
    64   101   100    1
    65    83    82    2
    66   104   105   ar
    67   104   106   ar
    68   105   107   ar
    69   100    99    1
    70   106   108   ar
    71    82    81    1
    72    80    81    1
    73   107   109   ar
    74    31    29   ar
    75    81    84    1
    76    30    29   ar
    77   108   109   ar
    78    29    28    1
    79    28    25    1
    80    86    88   ar
    81    86    85   ar
    82    84    85    1
    83    88    90   ar
    84    27    26    2
    85    85    87   ar
    86    26    25    1
    87    90    91    1
    88    90    89   ar
    89    25    24    1
    90    87    89   ar
    91    21    23   ar
    92    21    19   ar
    93    23    22   ar
    94    24    15   am
    95    19    18   ar
    96    16    15    2
    97    15    14    1
    98    22    20   ar
    99    18    20   ar
   100    18    17    1
   101    14    13    1
   102    14    17    1
   103    97    96    1
   104    96    98    1
   105    96    93    1
   106    94    93    1
   107    94    95    2
   108    93    92    1
