@<TRIPOS>MOLECULE
tmp/2l41A00.pdb
 150 145 0 0 0
SMALL
GASTEIGER

@<TRIPOS>ATOM
      1  N         26.5660   39.2260   27.2940 N.3     4  ARG4       -0.1245
      2  CA        27.0370   38.3620   26.2040 C.3     4  ARG4        0.1563
      3  C         28.3990   37.7500   26.5010 C.2     4  ARG4        0.2260
      4  O         29.2010   38.3150   27.2390 O.2     4  ARG4       -0.2867
      5  CB        26.9330   39.0680   24.8440 C.3     4  ARG4        0.0307
      6  CG        28.0870   40.0210   24.4970 C.3     4  ARG4        0.0489
      7  CD        27.7520   40.6670   23.1520 C.3     4  ARG4        0.2205
      8  NE        28.9120   41.2560   22.4600 N.pl3   4  ARG4       -0.0865
      9  CZ        28.8450   41.7750   21.2500 C.cat   4  ARG4        0.5346
     10  NH1       27.7230   41.8810   20.6070 N.pl3   4  ARG4        0.1354
     11  NH2       29.9170   42.1610   20.6330 N.pl3   4  ARG4        0.1354
     12  N         31.7580   35.7760   24.7000 N.3     6  PHE6       -0.1241
     13  CA        32.6050   35.6200   23.5290 C.3     6  PHE6        0.1605
     14  C         33.5470   34.4210   23.7100 C.2     6  PHE6        0.2264
     15  O         34.1300   34.2350   24.7820 O.2     6  PHE6       -0.2867
     16  CB        33.3640   36.9440   23.3480 C.3     6  PHE6        0.0534
     17  CG        34.3710   37.0190   22.2170 C.ar    6  PHE6       -0.0203
     18  CD1       34.1520   36.3490   20.9990 C.ar    6  PHE6       -0.0042
     19  CD2       35.5130   37.8270   22.3670 C.ar    6  PHE6       -0.0042
     20  CE1       35.0760   36.4740   19.9520 C.ar    6  PHE6       -0.0003
     21  CE2       36.4170   37.9760   21.3010 C.ar    6  PHE6       -0.0003
     22  CZ        36.2100   37.2820   20.1000 C.ar    6  PHE6       -0.0000
     23  N         37.0740   32.5400   22.2820 N.3     8  GLY8       -0.1210
     24  CA        38.3060   32.6670   21.5020 C.3     8  GLY8        0.1956
     25  C         38.3180   31.7880   20.2430 C.2     8  GLY8        0.2611
     26  O         37.3590   31.0940   19.9180 O.2     8  GLY8       -0.2717
     27  N         39.4430   31.7710   19.5350 N.am    9  ASN9       -0.1974
     28  CA        39.6260   31.0600   18.2650 C.3     9  ASN9        0.1688
     29  C         39.9870   29.5640   18.4070 C.2     9  ASN9        0.2292
     30  O         40.3560   28.9190   17.4230 O.2     9  ASN9       -0.2864
     31  CB        40.5980   31.8640   17.3850 C.3     9  ASN9        0.1181
     32  CG        41.9610   32.1330   18.0010 C.2     9  ASN9        0.2629
     33  OD1       42.2020   31.9490   19.1870 O.2     9  ASN9       -0.2716
     34  ND2       42.8900   32.6510   17.2430 N.am    9  ASN9       -0.0877
     35  N         23.9670   32.1490   20.1000 N.3    34  ASN34      -0.1240
     36  CA        24.2480   32.6650   18.7540 C.3    34  ASN34       0.1653
     37  C         25.5710   32.0780   18.2330 C.2    34  ASN34       0.2266
     38  O         26.6010   32.7480   18.1250 O.2    34  ASN34      -0.2867
     39  CB        24.1900   34.2040   18.7520 C.3    34  ASN34       0.1155
     40  CG        24.4270   34.7890   17.3660 C.2    34  ASN34       0.2627
     41  OD1       25.2790   35.6400   17.1480 O.2    34  ASN34      -0.2716
     42  ND2       23.6790   34.3670   16.3760 N.am   34  ASN34      -0.0877
     43  N         28.3610   30.6710   15.7550 N.3    36  LYS36      -0.1231
     44  CA        28.9110   30.9750   14.4330 C.3    36  LYS36       0.1693
     45  C         29.9720   29.9310   14.0940 C.2    36  LYS36       0.2592
     46  O         30.6850   29.4600   14.9800 O.2    36  LYS36      -0.2718
     47  CB        29.4960   32.3990   14.3760 C.3    36  LYS36       0.0285
     48  CG        28.6710   33.5100   15.0530 C.3    36  LYS36       0.0035
     49  CD        27.2990   33.7600   14.4130 C.3    36  LYS36       0.0206
     50  CE        27.4390   34.4800   13.0720 C.3    36  LYS36       0.1093
     51  NZ        26.1260   34.6450   12.4150 N.3    36  LYS36      -0.1314
     52  N         30.0860   29.5750   12.8220 N.am   37  ASN37      -0.1960
     53  CA        30.8520   28.4140   12.3570 C.3    37  ASN37       0.1819
     54  C         32.3880   28.5410   12.4730 C.2    37  ASN37       0.2621
     55  O         33.0920   27.5430   12.2850 O.2    37  ASN37      -0.2715
     56  CB        30.3770   28.0770   10.9340 C.3    37  ASN37       0.1195
     57  CG        30.6080   29.1850    9.9260 C.2    37  ASN37       0.2630
     58  OD1       31.3710   30.1180   10.1350 O.2    37  ASN37      -0.2716
     59  ND2       29.9660   29.1030    8.7940 N.am   37  ASN37      -0.0877
     60  N         32.9330   29.7150   12.8010 N.am   38  ALA38      -0.1963
     61  CA        34.3300   29.8800   13.2100 C.3    38  ALA38       0.1728
     62  C         34.4630   29.8370   14.7440 C.2    38  ALA38       0.2616
     63  O         35.1170   28.9460   15.2840 O.2    38  ALA38      -0.2715
     64  CB        34.8940   31.1530   12.5650 C.3    38  ALA38       0.0334
     65  N         33.7900   30.7540   15.4430 N.am   39  PHE39      -0.1974
     66  CA        33.6960   30.8260   16.9080 C.3    39  PHE39       0.1639
     67  C         32.3580   31.4610   17.3230 C.2    39  PHE39       0.2290
     68  O         31.9570   32.4910   16.7830 O.2    39  PHE39      -0.2864
     69  CB        34.8900   31.6180   17.4760 C.3    39  PHE39       0.0560
     70  CG        35.1340   32.9480   16.7850 C.ar   39  PHE39      -0.0200
     71  CD1       34.4460   34.1070   17.1940 C.ar   39  PHE39      -0.0042
     72  CD2       35.9990   33.0100   15.6770 C.ar   39  PHE39      -0.0042
     73  CE1       34.6030   35.3120   16.4850 C.ar   39  PHE39      -0.0003
     74  CE2       36.1500   34.2110   14.9670 C.ar   39  PHE39      -0.0003
     75  CZ        35.4580   35.3660   15.3710 C.ar   39  PHE39      -0.0000
     76  N         29.0210   32.9630   19.8200 N.3    41  PHE41      -0.1227
     77  CA        28.6330   33.8530   20.9100 C.3    41  PHE41       0.1736
     78  C         27.4520   33.2710   21.7010 C.2    41  PHE41       0.2595
     79  O         26.6290   32.5220   21.1770 O.2    41  PHE41      -0.2718
     80  CB        28.2820   35.2400   20.3530 C.3    41  PHE41       0.0547
     81  CG        29.4670   36.1740   20.2190 C.ar   41  PHE41      -0.0202
     82  CD1       30.3520   36.0580   19.1300 C.ar   41  PHE41      -0.0042
     83  CD2       29.6810   37.1690   21.1920 C.ar   41  PHE41      -0.0042
     84  CE1       31.4380   36.9420   19.0120 C.ar   41  PHE41      -0.0003
     85  CE2       30.7590   38.0590   21.0650 C.ar   41  PHE41      -0.0003
     86  CZ        31.6350   37.9510   19.9720 C.ar   41  PHE41      -0.0000
     87  N         27.3440   33.6630   22.9660 N.am   42  ILE42      -0.1966
     88  CA        26.1850   33.4370   23.8420 C.3    42  ILE42       0.1727
     89  C         25.6190   34.8000   24.2660 C.2    42  ILE42       0.2616
     90  O         26.3720   35.7700   24.3640 O.2    42  ILE42      -0.2715
     91  CB        26.6120   32.5170   25.0200 C.3    42  ILE42       0.0290
     92  CG1       26.1980   31.0640   24.7090 C.3    42  ILE42       0.0022
     93  CG2       26.0720   32.9560   26.3920 C.3    42  ILE42       0.0023
     94  CD1       26.8300   30.0120   25.6300 C.3    42  ILE42       0.0001
     95  N         24.3200   34.8810   24.5530 N.am   43  GLN43      -0.1977
     96  CA        23.6980   36.0560   25.1690 C.3    43  GLN43       0.1601
     97  C         22.7290   35.5960   26.2660 C.2    43  GLN43       0.2287
     98  O         21.6950   35.0130   25.9580 O.2    43  GLN43      -0.2864
     99  CB        23.0240   36.9010   24.0770 C.3    43  GLN43       0.0394
    100  CG        22.6790   38.3150   24.5650 C.3    43  GLN43       0.0908
    101  CD        22.0840   39.1960   23.4710 C.2    43  GLN43       0.2608
    102  OE1       21.6700   38.7480   22.4030 O.2    43  GLN43      -0.2717
    103  NE2       22.0080   40.4860   23.6960 N.am   43  GLN43      -0.0878
    104  N         47.7350   28.7150   27.0070 N.3    65  LYS65      -0.1245
    105  CA        46.3510   28.9920   26.5880 C.3    65  LYS65       0.1561
    106  C         45.6490   27.7310   26.0800 C.2    65  LYS65       0.2260
    107  O         45.7900   27.3640   24.9090 O.2    65  LYS65      -0.2867
    108  CB        46.3390   30.0890   25.5040 C.3    65  LYS65       0.0271
    109  CG        46.8100   31.4860   25.9370 C.3    65  LYS65       0.0035
    110  CD        45.7550   32.3290   26.6760 C.3    65  LYS65       0.0206
    111  CE        45.4980   31.9430   28.1370 C.3    65  LYS65       0.1093
    112  NZ        46.6750   32.1960   28.9960 N.3    65  LYS65      -0.1314
    113  N         39.7170   29.9350   26.2330 N.3    68  ILE68      -0.1231
    114  CA        39.4860   31.3800   26.1080 C.3    68  ILE68       0.1692
    115  C         37.9750   31.6500   26.0600 C.2    68  ILE68       0.2592
    116  O         37.3140   31.3600   25.0560 O.2    68  ILE68      -0.2718
    117  CB        40.2050   31.9540   24.8610 C.3    68  ILE68       0.0266
    118  CG1       41.7400   31.7760   24.9650 C.3    68  ILE68       0.0019
    119  CG2       39.8480   33.4430   24.6880 C.3    68  ILE68       0.0020
    120  CD1       42.5320   32.2840   23.7520 C.3    68  ILE68       0.0001
    121  N         37.4580   32.2360   27.1410 N.am   69  LEU69      -0.1966
    122  CA        36.0890   32.7330   27.3130 C.3    69  LEU69       0.1728
    123  C         36.1460   34.1750   27.8590 C.2    69  LEU69       0.2616
    124  O         36.9560   34.4630   28.7420 O.2    69  LEU69      -0.2715
    125  CB        35.3120   31.8240   28.2910 C.3    69  LEU69       0.0311
    126  CG        35.3090   30.3110   27.9960 C.3    69  LEU69       0.0022
    127  CD1       34.5130   29.5600   29.0660 C.3    69  LEU69       0.0001
    128  CD2       34.6460   29.9710   26.6660 C.3    69  LEU69       0.0001
    129  N         35.2950   35.0750   27.3670 N.am   70  GLU70      -0.1963
    130  CA        35.2820   36.4930   27.7660 C.3    70  GLU70       0.1733
    131  C         33.8520   37.0440   27.8740 C.2    70  GLU70       0.2616
    132  O         33.0570   36.8960   26.9480 O.2    70  GLU70      -0.2715
    133  CB        36.0940   37.2980   26.7390 C.3    70  GLU70       0.0429
    134  CG        36.1370   38.8110   27.0020 C.3    70  GLU70       0.1163
    135  CD        37.0750   39.1900   28.1440 C.2    70  GLU70       0.3649
    136  OE1       36.7930   38.8750   29.3250 O.co2  70  GLU70      -0.2457
    137  OE2       38.1170   39.8320   27.8690 O.co2  70  GLU70      -0.2457
    138  N         33.5210   37.7190   28.9800 N.am   71  VAL71      -0.1963
    139  CA        32.2010   38.3470   29.1660 C.3    71  VAL71       0.1727
    140  C         32.2080   39.7990   28.6870 C.2    71  VAL71       0.2616
    141  O         33.0990   40.5760   29.0360 O.2    71  VAL71      -0.2715
    142  CB        31.6800   38.1860   30.6110 C.3    71  VAL71       0.0290
    143  CG1       32.5020   38.9310   31.6670 C.3    71  VAL71       0.0023
    144  CG2       30.2150   38.6110   30.7320 C.3    71  VAL71       0.0023
    145  N         31.1770   40.1810   27.9380 N.am   72  SER72      -0.1950
    146  CA        30.7630   41.5640   27.6920 C.3    72  SER72       0.1924
    147  C         29.4390   41.8070   28.4050 C.2    72  SER72       0.2314
    148  O         28.3710   41.4110   27.9300 O.2    72  SER72      -0.2863
    149  CB        30.6950   41.8650   26.1940 C.3    72  SER72       0.2116
    150  OG        31.8910   42.5140   25.8130 O.3    72  SER72      -0.2180
@<TRIPOS>BOND
     1    59    57   am
     2    57    58    2
     3    57    56    1
     4    56    53    1
     5    55    54    2
     6    53    54    1
     7    53    52    1
     8    51    50    1
     9    54    60   am
    10    64    61    1
    11    60    61    1
    12    52    45   am
    13    50    49    1
    14    61    62    1
    15    45    44    1
    16    45    46    2
    17    47    44    1
    18    47    48    1
    19    49    48    1
    20    44    43    1
    21    62    63    2
    22    62    65   am
    23    74    75   ar
    24    74    72   ar
    25    75    73   ar
    26    65    66    1
    27    72    70   ar
    28    42    40   am
    29    73    71   ar
    30    68    67    2
    31    70    71   ar
    32    70    69    1
    33    66    67    1
    34    66    69    1
    35    41    40    2
    36    34    32   am
    37    40    39    1
    38    31    32    1
    39    31    28    1
    40    30    29    2
    41    32    33    2
    42    38    37    2
    43    37    36    1
    44    28    29    1
    45    28    27    1
    46    39    36    1
    47    36    35    1
    48    84    82   ar
    49    84    86   ar
    50    82    81   ar
    51    27    25   am
    52    76    77    1
    53    26    25    2
    54    20    22   ar
    55    20    18   ar
    56    86    85   ar
    57    22    21   ar
    58    81    80    1
    59    81    83   ar
    60    25    24    1
    61    80    77    1
    62    10     9    1
    63    11     9    1
    64    77    78    1
    65    18    17   ar
    66    85    83   ar
    67    79    78    2
    68     9     8    2
    69    21    19   ar
    70    24    23    1
    71    78    87   am
    72    17    19   ar
    73    17    16    1
    74   102   101    2
    75     8     7    1
    76    87    88    1
    77     7     6    1
    78    16    13    1
    79   101   103   am
    80   101   100    1
    81    13    14    1
    82    13    12    1
    83    14    15    2
    84   120   118    1
    85    88    89    1
    86    88    91    1
    87    99   100    1
    88    99    96    1
    89    89    90    2
    90    89    95   am
    91     6     5    1
    92    95    96    1
    93   119   117    1
    94    92    91    1
    95    92    94    1
    96     5     2    1
    97   117   118    1
    98   117   114    1
    99   107   106    2
   100    91    93    1
   101   116   115    2
   102    96    97    1
   103   108   109    1
   104   108   105    1
   105   150   149    1
   106   109   110    1
   107    98    97    2
   108   115   114    1
   109   115   121   am
   110   106   105    1
   111   114   113    1
   112   149   146    1
   113     2     3    1
   114     2     1    1
   115     3     4    2
   116   105   104    1
   117   128   126    1
   118   110   111    1
   119   133   134    1
   120   133   130    1
   121   132   131    2
   122   134   135    1
   123   121   122    1
   124   122   123    1
   125   122   125    1
   126   129   130    1
   127   129   123   am
   128   146   145    1
   129   146   147    1
   130   130   131    1
   131   123   124    2
   132   137   135   ar
   133   131   138   am
   134   148   147    2
   135   145   140   am
   136   126   125    1
   137   126   127    1
   138   111   112    1
   139   135   136   ar
   140   140   141    2
   141   140   139    1
   142   138   139    1
   143   139   142    1
   144   142   144    1
   145   142   143    1
