@<TRIPOS>MOLECULE
tmp/2l4dA00.pdb
 235 230 0 0 0
SMALL
GASTEIGER

@<TRIPOS>ATOM
      1  N          0.7480    8.6880    8.6870 N.3     9  ARG9       -0.1231
      2  CA        -0.2070    8.7120    7.5600 C.3     9  ARG9        0.1694
      3  C         -0.5090    7.3190    6.9830 C.2     9  ARG9        0.2592
      4  O         -0.6590    7.1730    5.7740 O.2     9  ARG9       -0.2718
      5  CB         0.1360    9.8030    6.5120 C.3     9  ARG9        0.0321
      6  CG         1.5750    9.8980    5.9720 C.3     9  ARG9        0.0489
      7  CD         2.5260   10.6150    6.9430 C.3     9  ARG9        0.2205
      8  NE         3.7330   11.1120    6.2710 N.pl3   9  ARG9       -0.0865
      9  CZ         4.6860   11.8930    6.8160 C.cat   9  ARG9        0.5346
     10  NH1        4.5950   12.3560    8.0710 N.pl3   9  ARG9        0.1354
     11  NH2        5.7600   12.2210    6.0830 N.pl3   9  ARG9        0.1354
     12  N         -0.5620    6.2810    7.8260 N.am   10  CYS10      -0.1970
     13  CA        -0.7650    4.8990    7.3510 C.3    10  CYS10       0.1712
     14  C         -1.3220    3.9050    8.3870 C.2    10  CYS10       0.2296
     15  O         -2.1010    3.0190    8.0210 O.2    10  CYS10      -0.2864
     16  CB         0.5800    4.3750    6.8210 C.3    10  CYS10       0.0983
     17  SG         0.5690    3.1430    5.4900 S.3    10  CYS10      -0.0798
     18  N         -3.5950    4.0600   10.5970 N.3    12  SER12      -0.1202
     19  CA        -5.0600    4.1690   10.6970 C.3    12  SER12       0.2020
     20  C         -5.8490    3.0170   10.0590 C.2    12  SER12       0.2619
     21  O         -7.0090    2.8160   10.4160 O.2    12  SER12      -0.2717
     22  CB        -5.5150    5.4980   10.0830 C.3    12  SER12       0.2103
     23  OG        -5.1330    5.5870    8.7200 O.3    12  SER12      -0.2182
     24  N         -5.2460    2.2330    9.1590 N.am   13  CYS13      -0.1955
     25  CA        -5.8780    1.0360    8.5800 C.3    13  CYS13       0.1843
     26  C         -4.9420   -0.1750    8.4550 C.2    13  CYS13       0.2625
     27  O         -5.3530   -1.1900    7.8930 O.2    13  CYS13      -0.2714
     28  CB        -6.4360    1.3590    7.1920 C.3    13  CYS13       0.0997
     29  SG        -7.5710    2.7740    7.0470 S.3    13  CYS13      -0.0797
     30  N         -3.6880   -0.0910    8.9130 N.am   14  HIS14      -0.1973
     31  CA        -2.6720   -1.1130    8.6500 C.3    14  HIS14       0.1656
     32  C         -1.7450   -1.4370    9.8320 C.2    14  HIS14       0.2291
     33  O         -1.7190   -0.7820   10.8750 O.2    14  HIS14      -0.2864
     34  CB        -1.8540   -0.7160    7.4080 C.3    14  HIS14       0.0771
     35  CG        -2.5570   -1.0090    6.1180 C.ar   14  HIS14       0.0820
     36  ND1       -2.9100   -2.2360    5.6130 N.ar   14  HIS14      -0.2267
     37  CD2       -2.8470   -0.0770    5.1780 C.ar   14  HIS14       0.1154
     38  CE1       -3.3920   -2.0370    4.3720 C.ar   14  HIS14       0.1986
     39  NE2       -3.3850   -0.7230    4.0510 N.ar   14  HIS14      -0.2212
     40  N         -9.4420   -3.2990    8.8180 N.3    26  ILE26      -0.1231
     41  CA        -9.7460   -2.2440    7.8350 C.3    26  ILE26       0.1692
     42  C         -8.8110   -2.3740    6.6150 C.2    26  ILE26       0.2593
     43  O         -9.2000   -2.0340    5.4980 O.2    26  ILE26      -0.2718
     44  CB        -9.6490   -0.8450    8.4980 C.3    26  ILE26       0.0266
     45  CG1      -10.5520   -0.7520    9.7520 C.3    26  ILE26       0.0019
     46  CG2      -10.0570    0.2620    7.5060 C.3    26  ILE26       0.0020
     47  CD1      -10.3990    0.5570   10.5370 C.3    26  ILE26       0.0001
     48  N         -7.6080   -2.9270    6.7940 N.am   27  GLY27      -0.1943
     49  CA        -6.6420   -3.1790    5.7240 C.3    27  GLY27       0.1998
     50  C         -5.6050   -4.2670    6.0720 C.2    27  GLY27       0.2481
     51  O         -5.0350   -4.2450    7.1700 O.2    27  GLY27      -0.2729
     52  N         -5.3040   -5.1870    5.1290 N.am   28  PRO28      -0.2715
     53  CA        -4.4960   -6.3910    5.3620 C.3    28  PRO28       0.1536
     54  C         -3.0210   -6.1200    5.7020 C.2    28  PRO28       0.2599
     55  O         -2.5090   -5.0160    5.5070 O.2    28  PRO28      -0.2715
     56  CB        -4.6230   -7.2240    4.0780 C.3    28  PRO28       0.0310
     57  CG        -4.8880   -6.1700    3.0070 C.3    28  PRO28       0.0237
     58  CD        -5.7870   -5.1940    3.7550 C.3    28  PRO28       0.0939
     59  N         -2.3450   -7.1650    6.1810 N.am   29  ASP29      -0.1958
     60  CA        -0.9400   -7.1680    6.5970 C.3    29  ASP29       0.1840
     61  C          0.0150   -6.8510    5.4340 C.2    29  ASP29       0.2621
     62  O         -0.0330   -7.4850    4.3730 O.2    29  ASP29      -0.2715
     63  CB        -0.6170   -8.5380    7.2210 C.3    29  ASP29       0.1450
     64  CG         0.8440   -8.7190    7.6440 C.2    29  ASP29       0.3671
     65  OD1        1.5670   -7.7130    7.7950 O.co2  29  ASP29      -0.2456
     66  OD2        1.2470   -9.8890    7.8650 O.co2  29  ASP29      -0.2456
     67  N          0.9150   -5.8940    5.6660 N.am   30  LEU30      -0.1977
     68  CA         1.9060   -5.4270    4.6990 C.3    30  LEU30       0.1596
     69  C          3.2220   -6.2310    4.7270 C.2    30  LEU30       0.2287
     70  O          3.9830   -6.1660    3.7600 O.2    30  LEU30      -0.2864
     71  CB         2.1560   -3.9290    4.9530 C.3    30  LEU30       0.0297
     72  CG         0.8960   -3.0340    4.9460 C.3    30  LEU30       0.0022
     73  CD1        1.2700   -1.5860    5.2650 C.3    30  LEU30       0.0001
     74  CD2        0.1860   -3.0480    3.5900 C.3    30  LEU30       0.0001
     75  N          4.5320   -8.3950    1.5860 N.3    33  VAL33      -0.1245
     76  CA         3.7570   -8.1110    0.3560 C.3    33  VAL33       0.1561
     77  C          4.6500   -7.6230   -0.7960 C.2    33  VAL33       0.2260
     78  O          4.4190   -7.9560   -1.9580 O.2    33  VAL33      -0.2867
     79  CB         2.5820   -7.1510    0.6360 C.3    33  VAL33       0.0252
     80  CG1        2.9660   -5.6640    0.6660 C.3    33  VAL33       0.0019
     81  CG2        1.4890   -7.3470   -0.4180 C.3    33  VAL33       0.0019
     82  N          3.3360   -9.3090   -4.3850 N.3    37  ARG37      -0.1245
     83  CA         2.6340   -8.4840   -5.3880 C.3    37  ARG37       0.1563
     84  C          3.6400   -7.8120   -6.3390 C.2    37  ARG37       0.2260
     85  O          4.8080   -7.6340   -5.9810 O.2    37  ARG37      -0.2867
     86  CB         1.7440   -7.4830   -4.6290 C.3    37  ARG37       0.0307
     87  CG         0.7610   -6.6570   -5.4760 C.3    37  ARG37       0.0489
     88  CD        -0.3550   -7.4860   -6.1230 C.3    37  ARG37       0.2205
     89  NE        -1.2800   -8.0210   -5.1110 N.pl3  37  ARG37      -0.0865
     90  CZ        -2.0650   -9.1040   -5.2400 C.cat  37  ARG37       0.5346
     91  NH1       -2.0810   -9.8370   -6.3650 N.pl3  37  ARG37       0.1354
     92  NH2       -2.8520   -9.4570   -4.2130 N.pl3  37  ARG37       0.1354
     93  N          3.1970   -2.0920   -9.4790 N.3    41  TRP41      -0.1227
     94  CA         1.8060   -1.9510   -9.0480 C.3    41  TRP41       0.1737
     95  C          1.7110   -1.5110   -7.5870 C.2    41  TRP41       0.2595
     96  O          0.9770   -0.5760   -7.2930 O.2    41  TRP41      -0.2718
     97  CB         1.0530   -3.2720   -9.2670 C.3    41  TRP41       0.0564
     98  CG        -0.4250   -3.2110   -9.0060 C.ar   41  TRP41       0.0003
     99  CD1       -1.3810   -2.9810   -9.9350 C.ar   41  TRP41       0.0946
    100  CD2       -1.1350   -3.3270   -7.7310 C.ar   41  TRP41       0.0152
    101  NE1       -2.6260   -2.9470   -9.3330 N.ar   41  TRP41      -0.2442
    102  CE2       -2.5260   -3.1180   -7.9700 C.ar   41  TRP41       0.0810
    103  CE3       -0.7420   -3.5580   -6.3930 C.ar   41  TRP41       0.0012
    104  CZ2       -3.4690   -3.1020   -6.9370 C.ar   41  TRP41       0.0191
    105  CZ3       -1.6830   -3.5370   -5.3450 C.ar   41  TRP41       0.0001
    106  CH2       -3.0420   -3.2900   -5.6120 C.ar   41  TRP41       0.0015
    107  N          2.4980   -2.1050   -6.6790 N.am   42  LEU42      -0.1980
    108  CA         2.4980   -1.7510   -5.2480 C.3    42  LEU42       0.1596
    109  C          2.7090   -0.2500   -4.9890 C.2    42  LEU42       0.2287
    110  O          2.0330    0.3330   -4.1410 O.2    42  LEU42      -0.2864
    111  CB         3.6150   -2.5440   -4.5400 C.3    42  LEU42       0.0297
    112  CG         3.2390   -3.9820   -4.1530 C.3    42  LEU42       0.0022
    113  CD1        4.4990   -4.7050   -3.6750 C.3    42  LEU42       0.0001
    114  CD2        2.2170   -4.0060   -3.0110 C.3    42  LEU42       0.0001
    115  N         -0.2780    1.8990   -7.2190 N.3    45  TRP45      -0.1227
    116  CA        -1.5600    1.7790   -6.5120 C.3    45  TRP45       0.1737
    117  C         -1.6460    2.7770   -5.3590 C.2    45  TRP45       0.2595
    118  O         -2.5980    3.5410   -5.2660 O.2    45  TRP45      -0.2718
    119  CB        -1.7280    0.3500   -5.9740 C.3    45  TRP45       0.0564
    120  CG        -2.9120    0.1560   -5.0770 C.ar   45  TRP45       0.0003
    121  CD1       -2.8770    0.0390   -3.7270 C.ar   45  TRP45       0.0946
    122  CD2       -4.3240    0.0800   -5.4500 C.ar   45  TRP45       0.0152
    123  NE1       -4.1680   -0.1260   -3.2530 N.ar   45  TRP45      -0.2442
    124  CE2       -5.0970   -0.0600   -4.2620 C.ar   45  TRP45       0.0810
    125  CE3       -5.0350    0.1130   -6.6690 C.ar   45  TRP45       0.0012
    126  CZ2       -6.4980   -0.1210   -4.2710 C.ar   45  TRP45       0.0191
    127  CZ3       -6.4440    0.0400   -6.6910 C.ar   45  TRP45       0.0001
    128  CH2       -7.1750   -0.0600   -5.4950 C.ar   45  TRP45       0.0015
    129  N         -0.5960    2.8580   -4.5390 N.am   46  LEU46      -0.1980
    130  CA        -0.4840    3.7770   -3.4040 C.3    46  LEU46       0.1596
    131  C         -0.5700    5.2720   -3.7930 C.2    46  LEU46       0.2287
    132  O         -0.8910    6.1110   -2.9430 O.2    46  LEU46      -0.2864
    133  CB         0.8370    3.4050   -2.7170 C.3    46  LEU46       0.0297
    134  CG         1.2050    4.1680   -1.4370 C.3    46  LEU46       0.0022
    135  CD1        0.1090    4.1140   -0.3730 C.3    46  LEU46       0.0001
    136  CD2        2.4510    3.4940   -0.8660 C.3    46  LEU46       0.0001
    137  N         -8.9910   -8.2080   -5.8050 N.3    63  LEU63      -0.1231
    138  CA        -8.3580   -8.4020   -4.4920 C.3    63  LEU63       0.1693
    139  C         -9.1560   -7.7470   -3.3600 C.2    63  LEU63       0.2592
    140  O         -9.1900   -8.2640   -2.2400 O.2    63  LEU63      -0.2718
    141  CB        -6.8560   -8.0570   -4.5700 C.3    63  LEU63       0.0284
    142  CG        -6.4930   -6.5670   -4.4760 C.3    63  LEU63       0.0019
    143  CD1       -6.3530   -6.1230   -3.0220 C.3    63  LEU63       0.0001
    144  CD2       -5.1500   -6.3100   -5.1490 C.3    63  LEU63       0.0001
    145  N         -9.8190   -6.6240   -3.6490 N.am   64  PHE64      -0.1976
    146  CA       -10.4590   -5.8170   -2.5910 C.3    64  PHE64       0.1639
    147  C        -11.7230   -6.4880   -2.0230 C.2    64  PHE64       0.2290
    148  O        -11.9170   -6.5460   -0.8040 O.2    64  PHE64      -0.2864
    149  CB       -10.6820   -4.3620   -3.0420 C.3    64  PHE64       0.0560
    150  CG       -12.0850   -4.0080   -3.5080 C.ar   64  PHE64      -0.0200
    151  CD1      -12.4650   -4.2150   -4.8450 C.ar   64  PHE64      -0.0042
    152  CD2      -13.0090   -3.4620   -2.5980 C.ar   64  PHE64      -0.0042
    153  CE1      -13.7590   -3.8630   -5.2750 C.ar   64  PHE64      -0.0003
    154  CE2      -14.3020   -3.1090   -3.0240 C.ar   64  PHE64      -0.0003
    155  CZ       -14.6770   -3.3070   -4.3650 C.ar   64  PHE64      -0.0000
    156  N        -10.7870   -9.3170    0.7610 N.3    67  TYR67      -0.1227
    157  CA       -10.3370   -8.9850    2.1130 C.3    67  TYR67       0.1736
    158  C        -11.5190   -8.5870    3.0030 C.2    67  TYR67       0.2595
    159  O        -11.8100   -9.2690    3.9910 O.2    67  TYR67      -0.2718
    160  CB        -9.2370   -7.9120    2.0700 C.3    67  TYR67       0.0548
    161  CG        -7.8870   -8.4160    1.5880 C.ar   67  TYR67      -0.0200
    162  CD1       -7.2030   -9.4090    2.3200 C.ar   67  TYR67      -0.0009
    163  CD2       -7.2970   -7.8770    0.4280 C.ar   67  TYR67      -0.0009
    164  CE1       -5.9290   -9.8450    1.9120 C.ar   67  TYR67       0.0417
    165  CE2       -6.0140   -8.3020    0.0300 C.ar   67  TYR67       0.0417
    166  CZ        -5.3200   -9.2750    0.7780 C.ar   67  TYR67       0.1957
    167  OH        -4.0590   -9.6430    0.4240 O.3    67  TYR67      -0.2866
    168  N        -12.1900   -7.4840    2.6640 N.am   68  ASN68      -0.1974
    169  CA       -13.2290   -6.8750    3.5000 C.3    68  ASN68       0.1688
    170  C        -14.2430   -5.9940    2.7340 C.2    68  ASN68       0.2292
    171  O        -14.9570   -5.2170    3.3750 O.2    68  ASN68      -0.2864
    172  CB       -12.5380   -6.1010    4.6480 C.3    68  ASN68       0.1181
    173  CG       -11.6730   -4.9350    4.1910 C.2    68  ASN68       0.2629
    174  OD1      -11.5310   -4.6420    3.0140 O.2    68  ASN68      -0.2716
    175  ND2      -11.0420   -4.2610    5.1220 N.am   68  ASN68      -0.0877
    176  N        -14.0370   -3.2190    1.1640 N.3    70  LEU70      -0.1231
    177  CA       -13.8110   -1.7920    1.4420 C.3    70  LEU70       0.1693
    178  C        -12.7740   -1.1910    0.4800 C.2    70  LEU70       0.2592
    179  O        -11.7370   -1.8010    0.2280 O.2    70  LEU70      -0.2718
    180  CB       -13.3790   -1.6560    2.9160 C.3    70  LEU70       0.0284
    181  CG       -13.0990   -0.2210    3.3990 C.3    70  LEU70       0.0019
    182  CD1      -14.3380    0.6730    3.3230 C.3    70  LEU70       0.0001
    183  CD2      -12.6260   -0.2580    4.8510 C.3    70  LEU70       0.0001
    184  N        -13.0270    0.0150   -0.0340 N.am   71  ALA71      -0.1966
    185  CA       -12.0730    0.7540   -0.8620 C.3    71  ALA71       0.1728
    186  C        -11.0210    1.5350   -0.0380 C.2    71  ALA71       0.2616
    187  O        -11.3000    2.0470    1.0510 O.2    71  ALA71      -0.2715
    188  CB       -12.8520    1.6730   -1.8100 C.3    71  ALA71       0.0334
    189  N         -9.8170    1.6850   -0.6020 N.am   72  MET72      -0.1964
    190  CA        -8.7440    2.5520   -0.1010 C.3    72  MET72       0.1722
    191  C         -8.7340    3.8880   -0.8780 C.2    72  MET72       0.2458
    192  O         -8.5980    3.8610   -2.1020 O.2    72  MET72      -0.2730
    193  CB        -7.4090    1.7910   -0.2110 C.3    72  MET72       0.0427
    194  CG        -6.1780    2.6400    0.1350 C.3    72  MET72       0.0599
    195  SD        -4.6270    1.6950    0.3220 S.3    72  MET72      -0.1393
    196  CE        -3.4470    3.0260   -0.0100 C.3    72  MET72       0.0692
    197  N         -8.8630    5.0550   -0.2140 N.am   73  PRO73      -0.2727
    198  CA        -8.7530    6.3630   -0.8590 C.3    73  PRO73       0.1402
    199  C         -7.2860    6.7740   -1.0700 C.2    73  PRO73       0.2269
    200  O         -6.3780    6.2250   -0.4420 O.2    73  PRO73      -0.2865
    201  CB        -9.4890    7.3170    0.0830 C.3    73  PRO73       0.0296
    202  CG        -9.1740    6.7360    1.4620 C.3    73  PRO73       0.0237
    203  CD        -9.1420    5.2270    1.2050 C.3    73  PRO73       0.0939
    204  N         -4.1830    8.9230   -0.2590 N.3    75  MET75      -0.1245
    205  CA        -3.6170    9.7290    0.8330 C.3    75  MET75       0.1570
    206  C         -2.9550   11.0330    0.3470 C.2    75  MET75       0.2261
    207  O         -2.7290   11.9330    1.1560 O.2    75  MET75      -0.2867
    208  CB        -2.6070    8.8790    1.6220 C.3    75  MET75       0.0387
    209  CG        -3.2520    7.6940    2.3550 C.3    75  MET75       0.0595
    210  SD        -4.5360    8.1060    3.5710 S.3    75  MET75      -0.1393
    211  CE        -3.5710    9.0330    4.7970 C.3    75  MET75       0.0692
    212  N          0.2820   11.5250   -1.1120 N.3    77  LEU77      -0.1245
    213  CA         1.6910   11.5630   -0.7080 C.3    77  LEU77       0.1561
    214  C          2.6030   12.0420   -1.8570 C.2    77  LEU77       0.2260
    215  O          2.2450   11.9370   -3.0370 O.2    77  LEU77      -0.2867
    216  CB         2.1120   10.1630   -0.2190 C.3    77  LEU77       0.0270
    217  CG         1.2300    9.5320    0.8770 C.3    77  LEU77       0.0019
    218  CD1        1.8020    8.1740    1.2870 C.3    77  LEU77       0.0001
    219  CD2        1.1100   10.3940    2.1330 C.3    77  LEU77       0.0001
    220  N          8.7370    5.0680    2.6070 N.3    85  LEU85      -0.1245
    221  CA         7.7600    4.0860    3.0820 C.3    85  LEU85       0.1561
    222  C          7.8700    2.7250    2.3610 C.2    85  LEU85       0.2260
    223  O          7.6830    1.6870    2.9990 O.2    85  LEU85      -0.2867
    224  CB         6.3640    4.7190    2.9610 C.3    85  LEU85       0.0270
    225  CG         5.2280    3.8790    3.5670 C.3    85  LEU85       0.0019
    226  CD1        5.3980    3.6270    5.0620 C.3    85  LEU85       0.0001
    227  CD2        3.9120    4.6260    3.3850 C.3    85  LEU85       0.0001
    228  N          8.6270   -0.9070    4.3960 N.3    89  LEU89      -0.1245
    229  CA         8.0220   -2.2200    4.1320 C.3    89  LEU89       0.1561
    230  C          9.0750   -3.2610    3.7090 C.2    89  LEU89       0.2260
    231  O          9.0620   -4.3820    4.2190 O.2    89  LEU89      -0.2867
    232  CB         6.9110   -2.0720    3.0740 C.3    89  LEU89       0.0270
    233  CG         5.5000   -1.8510    3.6480 C.3    89  LEU89       0.0019
    234  CD1        5.3860   -0.6650    4.6080 C.3    89  LEU89       0.0001
    235  CD2        4.5250   -1.6320    2.4870 C.3    89  LEU89       0.0001
@<TRIPOS>BOND
     1    99   101   ar
     2    99    98   ar
     3    93    94    1
     4   101   102   ar
     5    97    94    1
     6    97    98    1
     7    94    95    1
     8    98   100   ar
     9   102   100   ar
    10   102   104   ar
    11   100   103   ar
    12    95    96    2
    13    95   107   am
    14   115   116    1
    15   104   106   ar
    16   127   125   ar
    17   127   128   ar
    18   107   108    1
    19   125   122   ar
    20   116   119    1
    21   116   117    1
    22   103   105   ar
    23    91    90    1
    24    84    85    2
    25    84    83    1
    26    88    87    1
    27    88    89    1
    28   119   120    1
    29   137   138    1
    30   106   105   ar
    31   128   126   ar
    32    87    86    1
    33   122   120   ar
    34   122   124   ar
    35    83    86    1
    36    83    82    1
    37   117   118    2
    38   117   129   am
    39   153   151   ar
    40   153   155   ar
    41   108   109    1
    42   108   111    1
    43    90    89    2
    44    90    92    1
    45   144   142    1
    46   120   121   ar
    47   109   110    2
    48   151   150   ar
    49   141   138    1
    50   141   142    1
    51   111   112    1
    52   129   130    1
    53   138   139    1
    54   142   143    1
    55   155   154   ar
    56   126   124   ar
    57   124   123   ar
    58   112   113    1
    59   112   114    1
    60   131   130    1
    61   131   132    2
    62   121   123   ar
    63   145   139   am
    64   145   146    1
    65   150   149    1
    66   150   152   ar
    67   130   133    1
    68   139   140    2
    69   149   146    1
    70   215   214    2
    71   154   152   ar
    72   133   134    1
    73   146   147    1
    74   192   191    2
    75   147   148    2
    76    78    77    2
    77   214   213    1
    78   188   185    1
    79   134   136    1
    80   134   135    1
    81   212   213    1
    82   199   198    1
    83   199   200    2
    84   191   197   am
    85   191   190    1
    86   185   186    1
    87   185   184    1
    88   198   197    1
    89   198   201    1
    90    77    76    1
    91   213   216    1
    92   189   190    1
    93   189   186   am
    94    81    79    1
    95   204   205    1
    96   216   217    1
    97   197   203    1
    98   193   190    1
    99   193   194    1
   100   186   187    2
   101   184   178   am
   102   196   195    1
   103   165   163   ar
   104   165   166   ar
   105   201   202    1
   106   194   195    1
   107   179   178    2
   108   206   205    1
   109   206   207    2
   110    76    79    1
   111    76    75    1
   112   167   166    1
   113   163   161   ar
   114   178   177    1
   115    79    80    1
   116   156   157    1
   117   166   164   ar
   118   205   208    1
   119   217   218    1
   120   217   219    1
   121   176   177    1
   122   203   202    1
   123   177   180    1
   124   161   160    1
   125   161   162   ar
   126   208   209    1
   127   164   162   ar
   128   160   157    1
   129   157   158    1
   130   209   210    1
   131   222   223    2
   132   222   221    1
   133   235   233    1
   134   220   221    1
   135   168   158   am
   136   168   169    1
   137   170   171    2
   138   170   169    1
   139   180   181    1
   140   224   221    1
   141   224   225    1
   142   158   159    2
   143    57    58    1
   144    57    56    1
   145   174   173    2
   146   232   233    1
   147   232   229    1
   148   182   181    1
   149   227   225    1
   150   181   183    1
   151   169   172    1
   152   225   226    1
   153   210   211    1
   154    74    72    1
   155   233   234    1
   156   230   229    1
   157   230   231    2
   158    58    52    1
   159    70    69    2
   160    39    38   ar
   161    39    37   ar
   162    56    53    1
   163   229   228    1
   164   173   172    1
   165   173   175   am
   166    38    36   ar
   167    62    61    2
   168    68    69    1
   169    68    71    1
   170    68    67    1
   171    72    71    1
   172    72    73    1
   173    52    53    1
   174    52    50   am
   175    37    35   ar
   176    53    54    1
   177    61    67   am
   178    61    60    1
   179    17    16    1
   180    43    42    2
   181    55    54    2
   182    36    35   ar
   183    54    59   am
   184    49    50    1
   185    49    48    1
   186     4     3    2
   187     6     5    1
   188     6     7    1
   189    50    51    2
   190    11     9    1
   191    35    34    1
   192    59    60    1
   193     8     9    2
   194     8     7    1
   195     5     2    1
   196    60    63    1
   197    42    48   am
   198    42    41    1
   199     9    10    1
   200    16    13    1
   201     3     2    1
   202     3    12   am
   203    29    28    1
   204    28    25    1
   205    63    64    1
   206    13    12    1
   207    13    14    1
   208    34    31    1
   209    46    44    1
   210     2     1    1
   211    64    65   ar
   212    64    66   ar
   213    41    44    1
   214    41    40    1
   215    27    26    2
   216    15    14    2
   217    26    25    1
   218    26    30   am
   219    44    45    1
   220    25    24    1
   221    31    30    1
   222    31    32    1
   223    23    22    1
   224    24    20   am
   225    45    47    1
   226    32    33    2
   227    20    21    2
   228    20    19    1
   229    22    19    1
   230    18    19    1
