@<TRIPOS>MOLECULE
tmp/2l4kA00.pdb
 215 210 0 0 0
SMALL
GASTEIGER

@<TRIPOS>ATOM
      1  N         10.8070    1.8370   -5.0190 N.3    25  SER25      -0.1202
      2  CA         9.9450    1.7110   -6.2090 C.3    25  SER25       0.2020
      3  C          9.5400    0.2610   -6.4960 C.2    25  SER25       0.2619
      4  O         10.2660   -0.6650   -6.1420 O.2    25  SER25      -0.2717
      5  CB        10.6900    2.3150   -7.4110 C.3    25  SER25       0.2103
      6  OG         9.8890    2.3260   -8.5750 O.3    25  SER25      -0.2182
      7  N          8.3920    0.0560   -7.1500 N.am   26  ARG26      -0.1965
      8  CA         7.7570   -1.2500   -7.4360 C.3    26  ARG26       0.1729
      9  C          8.6830   -2.3950   -7.8730 C.2    26  ARG26       0.2616
     10  O          8.4800   -3.5370   -7.4620 O.2    26  ARG26      -0.2715
     11  CB         6.5810   -1.0210   -8.4160 C.3    26  ARG26       0.0348
     12  CG         6.9200   -0.7040   -9.8830 C.3    26  ARG26       0.0492
     13  CD         7.7530    0.5650  -10.1090 C.3    26  ARG26       0.2205
     14  NE         7.8920    0.8840  -11.5420 N.pl3  26  ARG26      -0.0865
     15  CZ         8.8740    1.5500  -12.1190 C.cat  26  ARG26       0.5346
     16  NH1        9.8360    2.1220  -11.4480 N.pl3  26  ARG26       0.1354
     17  NH2        8.8780    1.6770  -13.4100 N.pl3  26  ARG26       0.1354
     18  N          9.7310   -2.0950   -8.6390 N.am   27  GLU27      -0.1977
     19  CA        10.7180   -3.0860   -9.0960 C.3    27  GLU27       0.1602
     20  C         11.7000   -3.5240   -7.9910 C.2    27  GLU27       0.2287
     21  O         12.1270   -4.6770   -7.9670 O.2    27  GLU27      -0.2864
     22  CB        11.4920   -2.5220  -10.2970 C.3    27  GLU27       0.0415
     23  CG        10.6010   -2.2870  -11.5220 C.3    27  GLU27       0.1163
     24  CD        11.4560   -1.9340  -12.7510 C.2    27  GLU27       0.3649
     25  OE1       12.0170   -2.8660  -13.3790 O.co2  27  GLU27      -0.2457
     26  OE2       11.5820   -0.7320  -13.0900 O.co2  27  GLU27      -0.2457
     27  N          9.3630   -5.3020   -4.7360 N.3    30  GLN30      -0.1231
     28  CA         8.9860   -6.6990   -5.0050 C.3    30  GLN30       0.1698
     29  C         10.1560   -7.6980   -4.8530 C.2    30  GLN30       0.2592
     30  O          9.9110   -8.8920   -4.7000 O.2    30  GLN30      -0.2718
     31  CB         8.2450   -6.8290   -6.3440 C.3    30  GLN30       0.0381
     32  CG         9.1220   -6.7710   -7.6040 C.3    30  GLN30       0.0905
     33  CD         8.3140   -6.5710   -8.8920 C.2    30  GLN30       0.2608
     34  OE1        8.8260   -6.0970   -9.8950 O.2    30  GLN30      -0.2717
     35  NE2        7.0460   -6.9300   -8.9450 N.am   30  GLN30      -0.0878
     36  N         11.4140   -7.2270   -4.8360 N.am   31  ARG31      -0.1980
     37  CA        12.6060   -8.0620   -4.5830 C.3    31  ARG31       0.1597
     38  C         12.8060   -8.3220   -3.0810 C.2    31  ARG31       0.2287
     39  O         13.1980   -9.4230   -2.7000 O.2    31  ARG31      -0.2864
     40  CB        13.8330   -7.4100   -5.2550 C.3    31  ARG31       0.0334
     41  CG        15.0990   -8.2730   -5.1460 C.3    31  ARG31       0.0492
     42  CD        16.2160   -7.8320   -6.1020 C.3    31  ARG31       0.2205
     43  NE        16.7400   -6.4780   -5.8160 N.pl3  31  ARG31      -0.0865
     44  CZ        17.9340   -6.0130   -6.1300 C.cat  31  ARG31       0.5346
     45  NH1       18.8530   -6.7390   -6.7060 N.pl3  31  ARG31       0.1354
     46  NH2       18.2150   -4.7750   -5.8610 N.pl3  31  ARG31       0.1354
     47  N          3.9850    2.3030    0.8770 N.3    46  ARG46      -0.1227
     48  CA         5.1890    2.9810    0.3840 C.3    46  ARG46       0.1737
     49  C          4.9690    3.5190   -1.0050 C.2    46  ARG46       0.2595
     50  O          3.9700    3.2390   -1.6480 O.2    46  ARG46      -0.2718
     51  CB         6.4050    2.0300    0.5250 C.3    46  ARG46       0.0576
     52  CG         6.8490    1.2080   -0.7020 C.2    46  ARG46       0.0160
     53  CD         5.7460    0.3760   -1.3560 C.2    46  ARG46       0.1886
     54  NE         6.0130   -0.0780   -2.7410 N.pl3  46  ARG46      -0.0578
     55  CZ         6.2300    0.5940   -3.8570 C.cat  46  ARG46       0.5393
     56  NH1        6.6580    1.8120   -3.9600 N.pl3  46  ARG46       0.1358
     57  NH2        5.9660    0.0150   -4.9790 N.pl3  46  ARG46       0.1358
     58  N          5.8940    4.3370   -1.4530 N.am   47  GLU47      -0.1965
     59  CA         5.8920    4.8560   -2.8080 C.3    47  GLU47       0.1733
     60  C          7.3140    4.9500   -3.3420 C.2    47  GLU47       0.2617
     61  O          8.2270    4.2680   -2.8700 O.2    47  GLU47      -0.2715
     62  CB         5.0830    6.1730   -2.7990 C.3    47  GLU47       0.0429
     63  CG         5.6500    7.2860   -1.8880 C.3    47  GLU47       0.1163
     64  CD         4.6220    8.3700   -1.5560 C.2    47  GLU47       0.3649
     65  OE1        3.4880    8.1550   -1.1370 O.co2  47  GLU47      -0.2457
     66  OE2        5.0690    9.6400   -1.6970 O.co2  47  GLU47      -0.2457
     67  N          7.4870    5.8210   -4.3110 N.am   48  SER48      -0.1950
     68  CA         8.7330    6.2020   -4.9170 C.3    48  SER48       0.1924
     69  C          8.7810    7.7190   -5.0450 C.2    48  SER48       0.2314
     70  O          7.7680    8.4170   -5.1460 O.2    48  SER48      -0.2863
     71  CB         8.8460    5.6040   -6.3140 C.3    48  SER48       0.2116
     72  OG         7.8120    6.0890   -7.1310 O.3    48  SER48      -0.2180
     73  N          8.5410    7.3900   -9.6210 N.3    51  ASN51      -0.1240
     74  CA         7.3040    7.5640  -10.3890 C.3    51  ASN51       0.1653
     75  C          6.6910    8.9280   -9.9860 C.2    51  ASN51       0.2266
     76  O          6.4720    9.1570   -8.7920 O.2    51  ASN51      -0.2867
     77  CB         6.3240    6.3940  -10.2100 C.3    51  ASN51       0.1155
     78  CG         6.7760    5.2610  -11.1020 C.2    51  ASN51       0.2627
     79  OD1        6.4320    5.1780  -12.2740 O.2    51  ASN51      -0.2716
     80  ND2        7.6850    4.4560  -10.6270 N.am   51  ASN51      -0.0877
     81  N          3.4270    8.7300   -7.4980 N.3    54  GLY54      -0.1225
     82  CA         3.2550    7.5650   -6.6130 C.3    54  GLY54       0.1811
     83  C          2.8860    7.7170   -5.1320 C.2    54  GLY54       0.2280
     84  O          3.4950    8.4510   -4.3600 O.2    54  GLY54      -0.2866
     85  N          1.3890    4.1700   -3.4110 N.3    56  VAL56      -0.1245
     86  CA         1.0350    2.7370   -3.5590 C.3    56  VAL56       0.1561
     87  C          0.7070    2.0060   -2.2510 C.2    56  VAL56       0.2260
     88  O          1.2610    2.2550   -1.1820 O.2    56  VAL56      -0.2867
     89  CB         2.1150    1.9270   -4.3800 C.3    56  VAL56       0.0252
     90  CG1        3.3250    2.7540   -4.8290 C.3    56  VAL56       0.0019
     91  CG2        2.7730    0.7740   -3.6160 C.3    56  VAL56       0.0019
     92  N          2.4820  -14.3740   -5.2610 N.3    64  LYS64      -0.1231
     93  CA         3.3100  -13.2530   -5.7130 C.3    64  LYS64       0.1693
     94  C          3.1450  -12.0100   -4.8240 C.2    64  LYS64       0.2592
     95  O          2.4100  -12.0340   -3.8370 O.2    64  LYS64      -0.2718
     96  CB         2.9840  -12.9770   -7.1980 C.3    64  LYS64       0.0285
     97  CG         1.5940  -12.3420   -7.4180 C.3    64  LYS64       0.0035
     98  CD         0.9960  -12.6850   -8.7920 C.3    64  LYS64       0.0206
     99  CE         1.8840  -12.2310   -9.9640 C.3    64  LYS64       0.1093
    100  NZ         1.3210  -12.6680  -11.2730 N.3    64  LYS64      -0.1314
    101  N          3.8230  -10.9150   -5.1700 N.am   65  VAL65      -0.1966
    102  CA         3.6940   -9.6010   -4.5040 C.3    65  VAL65       0.1727
    103  C          3.5030   -8.5080   -5.5640 C.2    65  VAL65       0.2616
    104  O          4.1790   -8.5260   -6.5940 O.2    65  VAL65      -0.2715
    105  CB         4.8480   -9.3150   -3.5190 C.3    65  VAL65       0.0290
    106  CG1        5.1010  -10.5180   -2.6060 C.3    65  VAL65       0.0023
    107  CG2        6.1780   -8.9520   -4.1830 C.3    65  VAL65       0.0023
    108  N          2.5570   -7.5870   -5.3420 N.am   66  LYS66      -0.1963
    109  CA         2.1760   -6.5470   -6.3220 C.3    66  LYS66       0.1728
    110  C          1.8930   -5.1920   -5.6640 C.2    66  LYS66       0.2616
    111  O          1.5640   -5.1230   -4.4770 O.2    66  LYS66      -0.2715
    112  CB         0.9670   -7.0730   -7.1310 C.3    66  LYS66       0.0311
    113  CG         0.9260   -6.5810   -8.5860 C.3    66  LYS66       0.0038
    114  CD        -0.1880   -7.3170   -9.3510 C.3    66  LYS66       0.0206
    115  CE        -0.3290   -6.7990  -10.7920 C.3    66  LYS66       0.1093
    116  NZ        -1.4130   -7.5170  -11.5280 N.3    66  LYS66      -0.1314
    117  N          1.9860   -4.1250   -6.4540 N.am   67  HIS67      -0.1959
    118  CA         1.8150   -2.7310   -6.0190 C.3    67  HIS67       0.1787
    119  C          0.5420   -2.1310   -6.6070 C.2    67  HIS67       0.2620
    120  O          0.1650   -2.4360   -7.7280 O.2    67  HIS67      -0.2715
    121  CB         3.0660   -1.9380   -6.3740 C.3    67  HIS67       0.0785
    122  CG         4.2910   -2.6020   -5.8120 C.ar   67  HIS67       0.0821
    123  ND1        4.6910   -2.5470   -4.4750 N.ar   67  HIS67      -0.2267
    124  CD2        5.1020   -3.4660   -6.4780 C.ar   67  HIS67       0.1154
    125  CE1        5.7340   -3.3870   -4.3670 C.ar   67  HIS67       0.1986
    126  NE2        6.0210   -3.9210   -5.5620 N.ar   67  HIS67      -0.2212
    127  N         -0.0730   -1.2090   -5.8800 N.am   68  TYR68      -0.1960
    128  CA        -1.3850   -0.6260   -6.1970 C.3    68  TYR68       0.1771
    129  C         -1.3630    0.9100   -6.2800 C.2    68  TYR68       0.2619
    130  O         -1.9290    1.5970   -5.4330 O.2    68  TYR68      -0.2715
    131  CB        -2.2980   -1.2110   -5.1010 C.3    68  TYR68       0.0574
    132  CG        -3.8070   -1.2400   -5.1910 C.ar   68  TYR68      -0.0198
    133  CD1       -4.5460   -0.7970   -6.3080 C.ar   68  TYR68      -0.0009
    134  CD2       -4.4760   -1.8000   -4.0840 C.ar   68  TYR68      -0.0009
    135  CE1       -5.9550   -0.8860   -6.2850 C.ar   68  TYR68       0.0417
    136  CE2       -5.8740   -1.9010   -4.0670 C.ar   68  TYR68       0.0417
    137  CZ        -6.6180   -1.4310   -5.1620 C.ar   68  TYR68       0.1957
    138  OH        -7.9710   -1.5200   -5.1070 O.3    68  TYR68      -0.2866
    139  N         -0.6400    1.4580   -7.2620 N.am   69  LEU69      -0.1963
    140  CA        -0.5770    2.8910   -7.5720 C.3    69  LEU69       0.1728
    141  C         -0.5250    3.1580   -9.0730 C.2    69  LEU69       0.2616
    142  O          0.3230    2.5650   -9.7250 O.2    69  LEU69      -0.2715
    143  CB         0.7140    3.4480   -6.9950 C.3    69  LEU69       0.0311
    144  CG         1.1330    4.8710   -7.3630 C.3    69  LEU69       0.0022
    145  CD1        1.8290    4.9910   -8.7260 C.3    69  LEU69       0.0001
    146  CD2       -0.0380    5.8550   -7.1980 C.3    69  LEU69       0.0001
    147  N         -1.3690    4.0400   -9.6190 N.am   70  ILE70      -0.1963
    148  CA        -1.2540    4.4750  -11.0320 C.3    70  ILE70       0.1727
    149  C         -1.5460    5.9730  -11.1700 C.2    70  ILE70       0.2616
    150  O         -0.7980    6.6650  -11.8600 O.2    70  ILE70      -0.2715
    151  CB        -2.0300    3.5970  -12.0440 C.3    70  ILE70       0.0290
    152  CG1       -1.3530    2.2120  -12.0380 C.3    70  ILE70       0.0022
    153  CG2       -2.0060    4.1790  -13.4680 C.3    70  ILE70       0.0023
    154  CD1       -1.7100    1.2140  -13.1190 C.3    70  ILE70       0.0001
    155  N         -2.5810    6.4900  -10.4850 N.am   71  LEU71      -0.1977
    156  CA        -3.0050    7.8900  -10.6490 C.3    71  LEU71       0.1596
    157  C         -2.9550    8.7020   -9.3300 C.2    71  LEU71       0.2287
    158  O         -3.2370    8.1440   -8.2640 O.2    71  LEU71      -0.2864
    159  CB        -4.4330    7.8780  -11.2350 C.3    71  LEU71       0.0297
    160  CG        -4.7210    6.9460  -12.4400 C.3    71  LEU71       0.0022
    161  CD1       -6.2280    6.7520  -12.6340 C.3    71  LEU71       0.0001
    162  CD2       -4.1140    7.4650  -13.7390 C.3    71  LEU71       0.0001
    163  N         -6.6840    8.0490   -6.9530 N.3    80  TYR80      -0.1227
    164  CA        -7.3770    7.0880   -7.8200 C.3    80  TYR80       0.1736
    165  C         -6.8950    5.6240   -7.6910 C.2    80  TYR80       0.2595
    166  O         -5.6970    5.3440   -7.6390 O.2    80  TYR80      -0.2718
    167  CB        -7.4550    7.5960   -9.2620 C.3    80  TYR80       0.0548
    168  CG        -8.8660    7.9130   -9.7240 C.ar   80  TYR80      -0.0200
    169  CD1       -9.5410    9.0180   -9.1760 C.ar   80  TYR80      -0.0009
    170  CD2       -9.5240    7.0740  -10.6470 C.ar   80  TYR80      -0.0009
    171  CE1      -10.8740    9.2890   -9.5430 C.ar   80  TYR80       0.0417
    172  CE2      -10.8660    7.3290  -10.9980 C.ar   80  TYR80       0.0417
    173  CZ       -11.5510    8.4290  -10.4330 C.ar   80  TYR80       0.1957
    174  OH       -12.8650    8.6340  -10.7170 O.3    80  TYR80      -0.2866
    175  N         -7.8640    4.6940   -7.7000 N.am   81  PHE81      -0.1962
    176  CA        -7.6940    3.2330   -7.6790 C.3    81  PHE81       0.1771
    177  C         -8.7730    2.5060   -8.5030 C.2    81  PHE81       0.2620
    178  O         -9.9520    2.8270   -8.3660 O.2    81  PHE81      -0.2715
    179  CB        -7.5100    2.6010   -6.2800 C.3    81  PHE81       0.0574
    180  CG        -6.5740    3.2710   -5.2760 C.ar   81  PHE81      -0.0200
    181  CD1       -6.9850    4.4240   -4.5800 C.ar   81  PHE81      -0.0042
    182  CD2       -5.3310    2.6860   -4.9480 C.ar   81  PHE81      -0.0042
    183  CE1       -6.1710    4.9930   -3.5860 C.ar   81  PHE81      -0.0003
    184  CE2       -4.5130    3.2550   -3.9510 C.ar   81  PHE81      -0.0003
    185  CZ        -4.9330    4.4120   -3.2730 C.ar   81  PHE81      -0.0000
    186  N         -8.3660    1.4940   -9.2830 N.am   82  SER82      -0.1936
    187  CA        -9.2000    0.7570  -10.2560 C.3    82  SER82       0.2055
    188  C         -9.0440   -0.7760  -10.4060 C.2    82  SER82       0.2642
    189  O         -9.6970   -1.3020  -11.3090 O.2    82  SER82      -0.2714
    190  CB        -9.0200    1.4010  -11.6430 C.3    82  SER82       0.2130
    191  OG        -9.2100    2.8070  -11.6130 O.3    82  SER82      -0.2179
    192  N         -8.1820   -1.4970   -9.6530 N.am   83  MET83      -0.1976
    193  CA        -8.0910   -2.9860   -9.6540 C.3    83  MET83       0.1605
    194  C         -9.4330   -3.6950   -9.9710 C.2    83  MET83       0.2287
    195  O        -10.4840   -3.2690   -9.4910 O.2    83  MET83      -0.2864
    196  CB        -7.6430   -3.4620   -8.2500 C.3    83  MET83       0.0413
    197  CG        -7.3360   -4.9690   -8.1760 C.3    83  MET83       0.0598
    198  SD        -6.5240   -5.5480   -6.6530 S.3    83  MET83      -0.1393
    199  CE        -7.8430   -5.3090   -5.4290 C.3    83  MET83       0.0692
    200  N         -5.8760   -8.2700   -1.8380 N.3   106  ILE106     -0.1231
    201  CA        -5.3800   -8.1740   -3.2330 C.3   106  ILE106      0.1692
    202  C         -6.4330   -8.8520   -4.1510 C.2   106  ILE106      0.2591
    203  O         -7.5010   -9.2120   -3.6590 O.2   106  ILE106     -0.2718
    204  CB        -3.9810   -8.8450   -3.2990 C.3   106  ILE106      0.0266
    205  CG1       -3.1120   -8.2750   -4.4420 C.3   106  ILE106      0.0019
    206  CG2       -4.0800  -10.3770   -3.3650 C.3   106  ILE106      0.0020
    207  CD1       -1.6920   -8.8600   -4.4860 C.3   106  ILE106      0.0001
    208  N         -6.2130   -9.0260   -5.4660 N.am  107  LEU107     -0.1980
    209  CA        -7.1570   -9.8060   -6.2970 C.3   107  LEU107      0.1596
    210  C         -7.2430  -11.2620   -5.7250 C.2   107  LEU107      0.2287
    211  O         -6.2320  -11.9730   -5.7620 O.2   107  LEU107     -0.2864
    212  CB        -6.7020   -9.7820   -7.7730 C.3   107  LEU107      0.0297
    213  CG        -7.6020   -8.9090   -8.6680 C.3   107  LEU107      0.0022
    214  CD1       -6.9420   -8.7160  -10.0330 C.3   107  LEU107      0.0001
    215  CD2       -8.9720   -9.5580   -8.8750 C.3   107  LEU107      0.0001
@<TRIPOS>BOND
     1   162   160    1
     2   153   151    1
     3    17    15    1
     4    25    24   ar
     5   154   152    1
     6    26    24   ar
     7    24    23    1
     8   161   160    1
     9   160   159    1
    10    79    78    2
    11    15    14    2
    12    15    16    1
    13   151   152    1
    14   151   148    1
    15   150   149    2
    16   190   191    1
    17   190   187    1
    18    14    13    1
    19   116   115    1
    20    23    22    1
    21   189   188    2
    22   100    99    1
    23   159   156    1
    24   149   148    1
    25   149   155   am
    26    78    80   am
    27    78    77    1
    28   148   147    1
    29   172   170   ar
    30   172   173   ar
    31   115   114    1
    32   174   173    1
    33   156   155    1
    34   156   157    1
    35   170   168   ar
    36   173   171   ar
    37   188   187    1
    38   188   192   am
    39    74    77    1
    40    74    75    1
    41    74    73    1
    42    22    19    1
    43   187   186    1
    44    13    12    1
    45   214   213    1
    46    75    76    2
    47   194   193    1
    48   194   195    2
    49    99    98    1
    50    34    33    2
    51    12    11    1
    52   142   141    2
    53   168   167    1
    54   168   169   ar
    55   193   192    1
    56   193   196    1
    57   147   141   am
    58   171   169   ar
    59   114   113    1
    60   157   158    2
    61   186   177   am
    62   167   164    1
    63    19    18    1
    64    19    20    1
    65   141   140    1
    66    35    33   am
    67    33    32    1
    68   215   213    1
    69    98    97    1
    70   145   144    1
    71   213   212    1
    72    18     9   am
    73   113   112    1
    74     6     5    1
    75   177   178    2
    76   177   176    1
    77    11     8    1
    78   196   197    1
    79   197   198    1
    80    20    21    2
    81     9    10    2
    82     9     8    1
    83   164   165    1
    84   164   163    1
    85   212   209    1
    86   120   119    2
    87   175   165   am
    88   175   176    1
    89   165   166    2
    90   176   179    1
    91    32    31    1
    92   140   139    1
    93   140   143    1
    94    81    82    1
    95     8     7    1
    96    97    96    1
    97     5     2    1
    98   144   146    1
    99   144   143    1
   100   139   129   am
   101    96    93    1
   102     7     3   am
   103   112   109    1
   104    72    71    1
   105    45    44    1
   106   198   199    1
   107    82    83    1
   108   119   118    1
   109   119   127   am
   110   104   103    2
   111     3     2    1
   112     3     4    2
   113   124   122   ar
   114   124   126   ar
   115   117   118    1
   116   117   110   am
   117   121   118    1
   118   121   122    1
   119    31    28    1
   120   109   110    1
   121   109   108    1
   122    71    68    1
   123   133   135   ar
   124   133   132   ar
   125   209   210    1
   126   209   208    1
   127   135   137   ar
   128   129   128    1
   129   129   130    2
   130   179   180    1
   131     2     1    1
   132   128   127    1
   133   128   131    1
   134    44    46    1
   135    44    43    2
   136    42    43    1
   137    42    41    1
   138   122   123   ar
   139   211   210    2
   140    93    92    1
   141    93    94    1
   142   110   111    2
   143   103   108   am
   144   103   102    1
   145   126   125   ar
   146   208   202   am
   147   180   182   ar
   148   180   181   ar
   149    40    41    1
   150    40    37    1
   151   132   131    1
   152   132   134   ar
   153   101    94   am
   154   101   102    1
   155   137   138    1
   156   137   136   ar
   157    70    69    2
   158    83    84    2
   159    69    68    1
   160    28    29    1
   161    28    27    1
   162    57    55    1
   163   182   184   ar
   164    68    67    1
   165    29    36   am
   166    29    30    2
   167    36    37    1
   168    90    89    1
   169    94    95    2
   170    37    38    1
   171   181   183   ar
   172   102   105    1
   173   207   205    1
   174   123   125   ar
   175   205   204    1
   176    89    91    1
   177    89    86    1
   178    67    60   am
   179   107   105    1
   180   202   203    2
   181   202   201    1
   182   134   136   ar
   183    56    55    1
   184   184   185   ar
   185    55    54    2
   186   183   185   ar
   187    86    85    1
   188    86    87    1
   189   105   106    1
   190   206   204    1
   191    60    61    2
   192    60    59    1
   193   204   201    1
   194   201   200    1
   195    38    39    2
   196    59    62    1
   197    59    58    1
   198    62    63    1
   199    54    53    1
   200    87    88    2
   201    63    64    1
   202    66    64   ar
   203    50    49    2
   204    64    65   ar
   205    58    49   am
   206    53    52    2
   207    49    48    1
   208    52    51    1
   209    48    51    1
   210    48    47    1
