@<TRIPOS>MOLECULE
tmp/2l4tA00.pdb
 192 186 0 0 0
SMALL
GASTEIGER

@<TRIPOS>ATOM
      1  N          9.4460  -14.0820    5.7020 N.3    28  ILE28      -0.1231
      2  CA         8.4020  -13.0650    5.7260 C.3    28  ILE28       0.1692
      3  C          8.8250  -11.7750    6.3800 C.2    28  ILE28       0.2592
      4  O          9.7860  -11.7210    7.1430 O.2    28  ILE28      -0.2718
      5  CB         7.1290  -13.5870    6.3790 C.3    28  ILE28       0.0266
      6  CG1        7.4650  -14.6250    7.4500 C.3    28  ILE28       0.0019
      7  CG2        6.2760  -14.1520    5.2810 C.3    28  ILE28       0.0020
      8  CD1        6.2570  -15.2500    8.1150 C.3    28  ILE28       0.0001
      9  N          8.0510  -10.7570    6.1020 N.am   29  LEU29      -0.1966
     10  CA         8.4350   -9.3980    6.3590 C.3    29  LEU29       0.1728
     11  C          7.8300   -8.9320    7.6750 C.2    29  LEU29       0.2617
     12  O          8.5280   -8.3940    8.5340 O.2    29  LEU29      -0.2715
     13  CB         7.9850   -8.5160    5.1820 C.3    29  LEU29       0.0311
     14  CG         8.2980   -9.0850    3.7800 C.3    29  LEU29       0.0022
     15  CD1        7.3080  -10.1700    3.3670 C.3    29  LEU29       0.0001
     16  CD2        8.2980   -7.9880    2.7450 C.3    29  LEU29       0.0001
     17  N          6.5350   -9.1580    7.8370 N.am   30  GLY30      -0.1940
     18  CA         5.8890   -8.8790    9.1040 C.3    30  GLY30       0.2014
     19  C          5.2310   -7.5130    9.1640 C.2    30  GLY30       0.2639
     20  O          4.7540   -7.0900   10.2210 O.2    30  GLY30      -0.2714
     21  N          5.1990   -6.8100    8.0440 N.am   31  PHE31      -0.1959
     22  CA         4.5350   -5.5150    8.0030 C.3    31  PHE31       0.1771
     23  C          3.1390   -5.6950    7.4170 C.2    31  PHE31       0.2620
     24  O          2.8440   -6.7420    6.8480 O.2    31  PHE31      -0.2715
     25  CB         5.3550   -4.4850    7.2180 C.3    31  PHE31       0.0574
     26  CG         5.3150   -4.6340    5.7310 C.ar   31  PHE31      -0.0200
     27  CD1        6.0330   -5.6290    5.0990 C.ar   31  PHE31      -0.0042
     28  CD2        4.5670   -3.7590    4.9690 C.ar   31  PHE31      -0.0042
     29  CE1        5.9970   -5.7530    3.7260 C.ar   31  PHE31      -0.0003
     30  CE2        4.5270   -3.8740    3.5980 C.ar   31  PHE31      -0.0003
     31  CZ         5.2450   -4.8730    2.9720 C.ar   31  PHE31      -0.0000
     32  N          2.2840   -4.6920    7.5280 N.am   32  SER32      -0.1936
     33  CA         0.8690   -4.8950    7.2060 C.3    32  SER32       0.2055
     34  C          0.4080   -3.9090    6.1580 C.2    32  SER32       0.2643
     35  O          0.7860   -2.7350    6.1890 O.2    32  SER32      -0.2714
     36  CB        -0.0010   -4.7740    8.4630 C.3    32  SER32       0.2130
     37  OG        -1.3370   -5.1830    8.2090 O.3    32  SER32      -0.2179
     38  N         -0.4220   -4.3760    5.2310 N.am   33  ILE33      -0.1963
     39  CA        -0.8650   -3.5310    4.1520 C.3    33  ILE33       0.1727
     40  C         -2.3590   -3.6230    4.0290 C.2    33  ILE33       0.2617
     41  O         -2.9450   -4.6900    4.2340 O.2    33  ILE33      -0.2715
     42  CB        -0.2060   -3.8900    2.8010 C.3    33  ILE33       0.0290
     43  CG1       -0.6780   -5.2460    2.2710 C.3    33  ILE33       0.0022
     44  CG2        1.3020   -3.8890    2.9230 C.3    33  ILE33       0.0023
     45  CD1       -1.7650   -5.1460    1.2210 C.3    33  ILE33       0.0001
     46  N         -2.9730   -2.5230    3.6930 N.am   34  GLY34      -0.1940
     47  CA        -4.3940   -2.5130    3.5920 C.3    34  GLY34       0.2014
     48  C         -4.8650   -2.3530    2.1710 C.2    34  GLY34       0.2639
     49  O         -4.5200   -1.3790    1.5050 O.2    34  GLY34      -0.2714
     50  N         -5.6240   -3.3190    1.7020 N.am   35  GLY35      -0.1939
     51  CA        -6.2670   -3.1910    0.4180 C.3    35  GLY35       0.2014
     52  C         -7.7420   -3.2690    0.5860 C.2    35  GLY35       0.2639
     53  O         -8.3700   -4.2970    0.3500 O.2    35  GLY35      -0.2714
     54  N         -8.2770   -2.1880    1.0750 N.am   36  GLY36      -0.1939
     55  CA        -9.6380   -2.2060    1.5100 C.3    36  GLY36       0.2014
     56  C         -9.8390   -1.3160    2.7050 C.2    36  GLY36       0.2638
     57  O        -10.9670   -1.0740    3.1220 O.2    36  GLY36      -0.2714
     58  N         -8.7220   -0.8450    3.2550 N.am   37  ILE37      -0.1977
     59  CA        -8.7040   -0.1680    4.5670 C.3    37  ILE37       0.1596
     60  C         -9.9010    0.7430    4.8270 C.2    37  ILE37       0.2287
     61  O        -10.5290    0.6610    5.8800 O.2    37  ILE37      -0.2864
     62  CB        -7.4120    0.6440    4.7980 C.3    37  ILE37       0.0276
     63  CG1       -7.1550    1.6900    3.6940 C.3    37  ILE37       0.0022
     64  CG2       -6.2520   -0.3040    4.9080 C.3    37  ILE37       0.0022
     65  CD1       -6.6600    1.1260    2.3730 C.3    37  ILE37       0.0001
     66  N        -12.3640    1.2030    2.4000 N.3    39  GLN39      -0.1231
     67  CA       -13.3150    0.9290    1.3310 C.3    39  GLN39       0.1698
     68  C        -14.2530   -0.2660    1.6230 C.2    39  GLN39       0.2592
     69  O        -14.5850   -0.5360    2.7760 O.2    39  GLN39      -0.2718
     70  CB       -12.5770    0.7880    0.0050 C.3    39  GLN39       0.0381
     71  CG       -11.3090   -0.0130    0.0890 C.3    39  GLN39       0.0905
     72  CD       -10.1870    0.6660   -0.6460 C.2    39  GLN39       0.2608
     73  OE1       -9.9970    0.4640   -1.8340 O.2    39  GLN39      -0.2717
     74  NE2       -9.4310    1.4650    0.0660 N.am   39  GLN39      -0.0878
     75  N        -14.6350   -0.9960    0.5690 N.am   40  ASP40      -0.1960
     76  CA       -15.8850   -1.7560    0.5220 C.3    40  ASP40       0.1825
     77  C        -15.9320   -2.4700   -0.8580 C.2    40  ASP40       0.2464
     78  O        -15.0440   -2.2550   -1.6740 O.2    40  ASP40      -0.2730
     79  CB       -17.0380   -0.7400    0.6820 C.3    40  ASP40       0.1450
     80  CG       -18.3290   -1.3180    1.2170 C.2    40  ASP40       0.3671
     81  OD1      -18.3450   -1.7960    2.3650 O.co2  40  ASP40      -0.2456
     82  OD2      -19.3410   -1.2950    0.4730 O.co2  40  ASP40      -0.2456
     83  N        -16.8750   -3.3670   -1.1440 N.am   41  PRO41      -0.2727
     84  CA       -16.9520   -4.0230   -2.4680 C.3    41  PRO41       0.1402
     85  C        -17.6940   -3.1800   -3.4900 C.2    41  PRO41       0.2269
     86  O        -17.6090   -3.4050   -4.6990 O.2    41  PRO41      -0.2865
     87  CB       -17.7580   -5.2750   -2.1570 C.3    41  PRO41       0.0296
     88  CG       -18.6830   -4.8250   -1.0850 C.3    41  PRO41       0.0237
     89  CD       -17.8830   -3.8900   -0.2230 C.3    41  PRO41       0.0939
     90  N        -17.3950   -0.1890   -4.5540 N.3    43  GLN43      -0.1231
     91  CA       -16.7160    0.8230   -5.3350 C.3    43  GLN43       0.1698
     92  C        -16.1770    0.2540   -6.6280 C.2    43  GLN43       0.2592
     93  O        -15.9210    0.9810   -7.5810 O.2    43  GLN43      -0.2718
     94  CB       -15.5500    1.3560   -4.5450 C.3    43  GLN43       0.0381
     95  CG       -15.8990    1.8940   -3.1850 C.3    43  GLN43       0.0905
     96  CD       -16.1670    0.8030   -2.1950 C.2    43  GLN43       0.2608
     97  OE1      -17.3160    0.4590   -1.9290 O.2    43  GLN43      -0.2717
     98  NE2      -15.1030    0.1910   -1.7110 N.am   43  GLN43      -0.0878
     99  N        -15.9680   -1.0470   -6.6200 N.am   44  ASN44      -0.1974
    100  CA       -15.3350   -1.7640   -7.7410 C.3    44  ASN44       0.1688
    101  C        -15.9830   -1.5330   -9.1090 C.2    44  ASN44       0.2292
    102  O        -15.2700   -1.5510  -10.1100 O.2    44  ASN44      -0.2864
    103  CB       -15.2630   -3.2400   -7.4320 C.3    44  ASN44       0.1181
    104  CG       -14.5910   -4.0620   -8.5240 C.2    44  ASN44       0.2629
    105  OD1      -13.3660   -4.1730   -8.5550 O.2    44  ASN44      -0.2716
    106  ND2      -15.3820   -4.6650   -9.4000 N.am   44  ASN44      -0.0877
    107  N        -13.8140    0.8140   -9.3690 N.3    47  SER47      -0.1202
    108  CA       -12.4920    0.4940   -8.9310 C.3    47  SER47       0.2020
    109  C        -12.0080    1.5670   -7.9800 C.2    47  SER47       0.2618
    110  O        -10.8140    1.8690   -7.9120 O.2    47  SER47      -0.2717
    111  CB       -11.5750    0.3460  -10.1150 C.3    47  SER47       0.2103
    112  OG       -11.8050   -0.8710  -10.7990 O.3    47  SER47      -0.2182
    113  N        -12.9920    2.1360   -7.2820 N.am   48  GLU48      -0.1979
    114  CA       -12.8070    3.0640   -6.1830 C.3    48  GLU48       0.1602
    115  C        -12.6990    4.5010   -6.6890 C.2    48  GLU48       0.2287
    116  O        -13.5240    5.3490   -6.3460 O.2    48  GLU48      -0.2864
    117  CB       -11.5980    2.6410   -5.3750 C.3    48  GLU48       0.0415
    118  CG       -11.5980    3.1620   -3.9590 C.3    48  GLU48       0.1163
    119  CD       -12.6090    2.4580   -3.0850 C.2    48  GLU48       0.3649
    120  OE1      -12.7220    1.2160   -3.1860 O.co2  48  GLU48      -0.2457
    121  OE2      -13.3100    3.1400   -2.3180 O.co2  48  GLU48      -0.2457
    122  N         -8.2430    0.7690   -6.3080 N.3    53  LYS53      -0.1245
    123  CA        -8.1460   -0.5090   -5.5930 C.3    53  LYS53       0.1561
    124  C         -7.8770   -0.3040   -4.1180 C.2    53  LYS53       0.2260
    125  O         -8.1730   -1.1720   -3.3010 O.2    53  LYS53      -0.2867
    126  CB        -7.1080   -1.4450   -6.2170 C.3    53  LYS53       0.0271
    127  CG        -7.6020   -2.0830   -7.4990 C.3    53  LYS53       0.0035
    128  CD        -8.9450   -2.7600   -7.2800 C.3    53  LYS53       0.0206
    129  CE        -9.4750   -3.4040   -8.5530 C.3    53  LYS53       0.1093
    130  NZ        -8.5690   -4.4680   -9.0630 N.3    53  LYS53      -0.1314
    131  N         -0.2460    0.2950    5.9610 N.3    58  THR58      -0.1203
    132  CA        -0.7890    0.8720    7.1750 C.3    58  THR58       0.1994
    133  C          0.0910    0.5450    8.3790 C.2    58  THR58       0.2617
    134  O         -0.1910    0.9810    9.4990 O.2    58  THR58      -0.2717
    135  CB        -2.2390    0.3850    7.4120 C.3    58  THR58       0.1784
    136  OG1       -2.7820    0.9700    8.6020 O.3    58  THR58      -0.2211
    137  CG2       -2.2990   -1.1310    7.5110 C.3    58  THR58       0.0376
    138  N          1.1620   -0.2210    8.1450 N.am   59  ARG59      -0.1979
    139  CA         2.1450   -0.4940    9.1890 C.3    59  ARG59       0.1597
    140  C          3.3700   -1.1500    8.6100 C.2    59  ARG59       0.2287
    141  O          3.3870   -1.5660    7.4550 O.2    59  ARG59      -0.2864
    142  CB         1.5780   -1.3790   10.3070 C.3    59  ARG59       0.0334
    143  CG         2.0320   -2.8320   10.2720 C.3    59  ARG59       0.0492
    144  CD         1.5070   -3.6140   11.4650 C.3    59  ARG59       0.2205
    145  NE         2.2720   -3.3500   12.6860 N.pl3  59  ARG59      -0.0865
    146  CZ         2.5010   -4.2650   13.6290 C.cat  59  ARG59       0.5346
    147  NH1        1.9800   -5.4790   13.5130 N.pl3  59  ARG59       0.1354
    148  NH2        3.2350   -3.9600   14.6970 N.pl3  59  ARG59       0.1354
    149  N         -6.3690   -9.0050   -4.3760 N.3    90  HIS90      -0.1226
    150  CA        -5.6140   -8.9530   -3.1290 C.3    90  HIS90       0.1752
    151  C         -4.9320  -10.2870   -2.8500 C.2    90  HIS90       0.2596
    152  O         -3.7990  -10.3290   -2.3730 O.2    90  HIS90      -0.2718
    153  CB        -6.5600   -8.5840   -1.9860 C.3    90  HIS90       0.0759
    154  CG        -5.9010   -8.3920   -0.6520 C.ar   90  HIS90       0.0818
    155  ND1       -5.6760   -9.4250    0.2250 N.ar   90  HIS90      -0.2268
    156  CD2       -5.4450   -7.2740   -0.0340 C.ar   90  HIS90       0.1154
    157  CE1       -5.1230   -8.9570    1.3220 C.ar   90  HIS90       0.1986
    158  NE2       -4.9660   -7.6530    1.1970 N.ar   90  HIS90      -0.2212
    159  N         -5.6320  -11.3640   -3.1550 N.am   91  ASP91      -0.1974
    160  CA        -5.1010  -12.7150   -3.0000 C.3    91  ASP91       0.1709
    161  C         -4.0140  -12.9580   -4.0300 C.2    91  ASP91       0.2293
    162  O         -2.9820  -13.5530   -3.7390 O.2    91  ASP91      -0.2864
    163  CB        -6.2140  -13.7390   -3.1810 C.3    91  ASP91       0.1436
    164  CG        -5.7660  -15.1500   -2.8580 C.2    91  ASP91       0.3671
    165  OD1       -5.1610  -15.8050   -3.7300 O.co2  91  ASP91      -0.2456
    166  OD2       -6.0250  -15.6090   -1.7240 O.co2  91  ASP91      -0.2456
    167  N         -1.2350  -11.2540   -2.8030 N.3    94  ARG94      -0.1245
    168  CA        -0.7070  -12.0640   -1.7250 C.3    94  ARG94       0.1563
    169  C          0.2390  -13.1340   -2.2650 C.2    94  ARG94       0.2260
    170  O          1.2980  -13.3930   -1.6880 O.2    94  ARG94      -0.2867
    171  CB        -1.8530  -12.7160   -0.9320 C.3    94  ARG94       0.0307
    172  CG        -2.4480  -11.8550    0.1750 C.3    94  ARG94       0.0489
    173  CD        -1.3990  -11.3630    1.1620 C.3    94  ARG94       0.2205
    174  NE        -0.8110  -10.0830    0.7600 N.pl3  94  ARG94      -0.0865
    175  CZ        -0.3570   -9.1740    1.6270 C.cat  94  ARG94       0.5346
    176  NH1       -0.4180   -9.4090    2.9300 N.pl3  94  ARG94       0.1354
    177  NH2        0.1520   -8.0320    1.1920 N.pl3  94  ARG94       0.1354
    178  N          3.7000  -11.5670   -3.5100 N.3    97  LEU97      -0.1231
    179  CA         4.4490  -10.9740   -2.4140 C.3    97  LEU97       0.1693
    180  C          5.1410  -12.0300   -1.5820 C.2    97  LEU97       0.2592
    181  O          6.2510  -11.8330   -1.0870 O.2    97  LEU97      -0.2718
    182  CB         3.4930  -10.2060   -1.5290 C.3    97  LEU97       0.0284
    183  CG         2.7270   -9.1410   -2.2710 C.3    97  LEU97       0.0019
    184  CD1        1.6320   -8.5730   -1.4070 C.3    97  LEU97       0.0001
    185  CD2        3.6840   -8.0710   -2.7180 C.3    97  LEU97       0.0001
    186  N          4.4570  -13.1340   -1.4060 N.am   98  THR98      -0.1953
    187  CA         4.9360  -14.1770   -0.5170 C.3    98  THR98       0.1897
    188  C          4.8310  -15.5710   -1.1320 C.2    98  THR98       0.2313
    189  O          4.2100  -16.4710   -0.5580 O.2    98  THR98      -0.2863
    190  CB         4.1810  -14.1390    0.8290 C.3    98  THR98       0.1794
    191  OG1        2.7830  -13.8890    0.6080 O.3    98  THR98      -0.2208
    192  CG2        4.7460  -13.0670    1.7510 C.3    98  THR98       0.0378
@<TRIPOS>BOND
     1   112   111    1
     2   111   108    1
     3   102   101    2
     4   106   104   am
     5   107   108    1
     6   101   100    1
     7   130   129    1
     8   108   109    1
     9   105   104    2
    10   129   128    1
    11   104   103    1
    12   109   110    2
    13   109   113   am
    14   100   103    1
    15   100    99    1
    16    93    92    2
    17   127   128    1
    18   127   126    1
    19   113   114    1
    20   115   116    2
    21   115   114    1
    22    92    99   am
    23    92    91    1
    24   122   123    1
    25   126   123    1
    26   114   117    1
    27   123   124    1
    28   117   118    1
    29    91    90    1
    30    91    94    1
    31    86    85    2
    32    94    95    1
    33   149   150    1
    34   124   125    2
    35   161   162    2
    36   161   160    1
    37   118   119    1
    38   165   164   ar
    39   178   179    1
    40    85    84    1
    41   120   119   ar
    42    95    96    1
    43   163   160    1
    44   163   164    1
    45   159   160    1
    46   159   151   am
    47   150   151    1
    48   150   153    1
    49   119   121   ar
    50   164   166   ar
    51   151   152    2
    52   167   168    1
    53   185   183    1
    54    84    87    1
    55    84    83    1
    56   179   180    1
    57   179   182    1
    58   183   182    1
    59   183   184    1
    60   169   168    1
    61   169   170    2
    62    96    97    2
    63    96    98   am
    64    87    88    1
    65   153   154    1
    66    73    72    2
    67   168   171    1
    68    78    77    2
    69   180   186   am
    70   180   181    2
    71   186   187    1
    72    83    77   am
    73    83    89    1
    74   188   189    2
    75   188   187    1
    76    88    89    1
    77   171   172    1
    78    77    76    1
    79   154   156   ar
    80   154   155   ar
    81    72    74   am
    82    72    71    1
    83   187   190    1
    84   156   158   ar
    85    70    71    1
    86    70    67    1
    87   172   173    1
    88   155   157   ar
    89    53    52    2
    90    51    52    1
    91    51    50    1
    92    82    80   ar
    93    76    75    1
    94    76    79    1
    95    75    68   am
    96    52    54   am
    97   191   190    1
    98    79    80    1
    99   174   173    1
   100   174   175    2
   101   190   192    1
   102    54    55    1
   103   177   175    1
   104   158   157   ar
   105    80    81   ar
   106    45    43    1
   107    67    68    1
   108    67    66    1
   109    49    48    2
   110    55    56    1
   111    68    69    2
   112   175   176    1
   113    50    48   am
   114    48    47    1
   115    43    42    1
   116    65    63    1
   117    56    57    2
   118    56    58   am
   119    16    14    1
   120    42    44    1
   121    42    39    1
   122    31    30   ar
   123    31    29   ar
   124    58    59    1
   125    15    14    1
   126    47    46    1
   127    30    28   ar
   128    46    40   am
   129    63    62    1
   130    29    27   ar
   131    14    13    1
   132    40    39    1
   133    40    41    2
   134    39    38    1
   135    59    62    1
   136    59    60    1
   137    62    64    1
   138    60    61    2
   139    28    26   ar
   140    27    26   ar
   141    13    10    1
   142    38    34   am
   143     7     5    1
   144     1     2    1
   145     2     5    1
   146     2     3    1
   147    26    25    1
   148   131   132    1
   149     9    10    1
   150     9     3   am
   151    34    35    2
   152    34    33    1
   153    10    11    1
   154     5     6    1
   155     3     4    2
   156    24    23    2
   157   132   135    1
   158   132   133    1
   159    33    32    1
   160    33    36    1
   161    25    22    1
   162   135   137    1
   163   135   136    1
   164    23    32   am
   165    23    22    1
   166     6     8    1
   167   141   140    2
   168    11    17   am
   169    11    12    2
   170    17    18    1
   171    22    21    1
   172    21    19   am
   173   138   133   am
   174   138   139    1
   175    37    36    1
   176   133   134    2
   177   140   139    1
   178    18    19    1
   179    19    20    2
   180   139   142    1
   181   143   142    1
   182   143   144    1
   183   144   145    1
   184   145   146    2
   185   147   146    1
   186   146   148    1
