@<TRIPOS>MOLECULE
tmp/2l5eA00.pdb
 174 169 0 0 0
SMALL
GASTEIGER

@<TRIPOS>ATOM
      1  N         -7.8850    6.1780    7.1620 N.3    37  TRP37      -0.1228
      2  CA        -8.2560    5.2590    8.2300 C.3    37  TRP37       0.1722
      3  C         -8.8950    3.9440    7.7210 C.2    37  TRP37       0.2437
      4  O         -8.6910    2.9000    8.3420 O.2    37  TRP37      -0.2733
      5  CB        -9.1570    5.9530    9.2710 C.3    37  TRP37       0.0563
      6  CG       -10.5400    6.2810    8.7900 C.ar   37  TRP37       0.0003
      7  CD1      -10.9210    7.3920    8.1040 C.ar   37  TRP37       0.0946
      8  CD2      -11.7250    5.4980    8.9800 C.ar   37  TRP37       0.0152
      9  NE1      -12.2650    7.3440    7.8410 N.ar   37  TRP37      -0.2442
     10  CE2      -12.7830    6.1940    8.3690 C.ar   37  TRP37       0.0810
     11  CE3      -11.9950    4.2770    9.6000 C.ar   37  TRP37       0.0012
     12  CZ2      -14.0870    5.7110    8.3590 C.ar   37  TRP37       0.0191
     13  CZ3      -13.2900    3.7970    9.5920 C.ar   37  TRP37       0.0001
     14  CH2      -14.3230    4.5140    8.9740 C.ar   37  TRP37       0.0015
     15  N         -9.6670    3.9250    6.5950 N.am   38  PRO38      -0.2718
     16  CA       -10.2330    2.6750    6.0800 C.3    38  PRO38       0.1535
     17  C         -9.1670    1.7720    5.4660 C.2    38  PRO38       0.2598
     18  O         -9.4360    0.6280    5.1120 O.2    38  PRO38      -0.2715
     19  CB       -11.2300    3.1270    5.0030 C.3    38  PRO38       0.0310
     20  CG       -11.3740    4.5990    5.1720 C.3    38  PRO38       0.0237
     21  CD       -10.0800    5.0700    5.7600 C.3    38  PRO38       0.0939
     22  N         -7.9500    2.2930    5.3580 N.am   39  PHE39      -0.1974
     23  CA        -6.8420    1.5420    4.7880 C.3    39  PHE39       0.1639
     24  C         -5.8870    1.0980    5.8900 C.2    39  PHE39       0.2290
     25  O         -4.7600    0.6870    5.6260 O.2    39  PHE39      -0.2864
     26  CB        -6.0940    2.3910    3.7570 C.3    39  PHE39       0.0560
     27  CG        -6.7170    2.3890    2.3880 C.ar   39  PHE39      -0.0200
     28  CD1       -6.9360    1.2010    1.7090 C.ar   39  PHE39      -0.0042
     29  CD2       -7.0730    3.5810    1.7790 C.ar   39  PHE39      -0.0042
     30  CE1       -7.4980    1.2040    0.4450 C.ar   39  PHE39      -0.0003
     31  CE2       -7.6370    3.5890    0.5180 C.ar   39  PHE39      -0.0003
     32  CZ        -7.8490    2.4000   -0.1510 C.ar   39  PHE39      -0.0000
     33  N         -6.5570   -1.3580    7.7870 N.3    41  GLN41      -0.1245
     34  CA        -6.8000   -2.7760    7.9770 C.3    41  GLN41       0.1566
     35  C         -6.6080   -3.5420    6.6780 C.2    41  GLN41       0.2260
     36  O         -7.2250   -3.2210    5.6610 O.2    41  GLN41      -0.2867
     37  CB        -8.2100   -3.0040    8.5230 C.3    41  GLN41       0.0367
     38  CG        -8.4490   -2.3260    9.8630 C.3    41  GLN41       0.0905
     39  CD        -9.7170   -1.4990    9.8890 C.2    41  GLN41       0.2608
     40  OE1      -10.8210   -2.0370    9.8190 O.2    41  GLN41      -0.2717
     41  NE2       -9.5720   -0.1870   10.0050 N.am   41  GLN41      -0.0878
     42  N         -6.7020   -6.5890    3.8460 N.3    43  VAL43      -0.1245
     43  CA        -7.7310   -7.4950    3.3630 C.3    43  VAL43       0.1561
     44  C         -7.4010   -8.9330    3.7560 C.2    43  VAL43       0.2260
     45  O         -6.6660   -9.6450    3.0720 O.2    43  VAL43      -0.2867
     46  CB        -7.9360   -7.3760    1.8350 C.3    43  VAL43       0.0252
     47  CG1       -8.7460   -8.5450    1.2930 C.3    43  VAL43       0.0019
     48  CG2       -8.6370   -6.0720    1.4970 C.3    43  VAL43       0.0019
     49  N        -12.6780   -8.4130    7.3940 N.3    48  LEU48      -0.1245
     50  CA       -13.4530   -7.3310    6.7940 C.3    48  LEU48       0.1561
     51  C        -14.6170   -7.8790    5.9710 C.2    48  LEU48       0.2260
     52  O        -15.3870   -7.1180    5.3890 O.2    48  LEU48      -0.2867
     53  CB       -12.5500   -6.4590    5.9210 C.3    48  LEU48       0.0270
     54  CG       -12.6370   -4.9540    6.1940 C.3    48  LEU48       0.0019
     55  CD1      -12.3030   -4.6490    7.6450 C.3    48  LEU48       0.0001
     56  CD2      -11.7110   -4.1880    5.2600 C.3    48  LEU48       0.0001
     57  N        -14.7120   -9.7520    3.0740 N.3    50  LEU50      -0.1245
     58  CA       -14.5960   -9.4950    1.6450 C.3    50  LEU50       0.1561
     59  C        -14.2080  -10.7770    0.9030 C.2    50  LEU50       0.2260
     60  O        -13.0440  -10.9720    0.5540 O.2    50  LEU50      -0.2867
     61  CB       -13.5620   -8.3970    1.3820 C.3    50  LEU50       0.0270
     62  CG       -13.5850   -7.2390    2.3710 C.3    50  LEU50       0.0019
     63  CD1      -12.3070   -6.4380    2.2530 C.3    50  LEU50       0.0001
     64  CD2      -14.7980   -6.3550    2.1360 C.3    50  LEU50       0.0001
     65  N        -13.7550  -10.2940   -2.9600 N.3    53  TYR53      -0.1241
     66  CA       -12.6370   -9.3810   -3.1540 C.3    53  TYR53       0.1605
     67  C        -11.4900  -10.0860   -3.8690 C.2    53  TYR53       0.2264
     68  O        -10.8490   -9.5210   -4.7530 O.2    53  TYR53      -0.2867
     69  CB       -12.1560   -8.8760   -1.7970 C.3    53  TYR53       0.0534
     70  CG       -11.7970   -7.4110   -1.7640 C.ar   53  TYR53      -0.0201
     71  CD1      -12.7750   -6.4350   -1.6400 C.ar   53  TYR53      -0.0009
     72  CD2      -10.4720   -7.0070   -1.8430 C.ar   53  TYR53      -0.0009
     73  CE1      -12.4430   -5.0940   -1.5990 C.ar   53  TYR53       0.0417
     74  CE2      -10.1320   -5.6720   -1.8000 C.ar   53  TYR53       0.0417
     75  CZ       -11.1200   -4.7200   -1.6780 C.ar   53  TYR53       0.1957
     76  OH       -10.7820   -3.3890   -1.6410 O.3    53  TYR53      -0.2866
     77  N         -3.5970   -3.0280    0.6770 N.3    62  ASP62      -0.1239
     78  CA        -4.0520   -1.8230    1.3440 C.3    62  ASP62       0.1674
     79  C         -2.8520   -0.9690    1.7370 C.2    62  ASP62       0.2266
     80  O         -2.0990   -0.5210    0.8780 O.2    62  ASP62      -0.2867
     81  CB        -4.8910   -2.1930    2.5760 C.3    62  ASP62       0.1410
     82  CG        -4.1940   -3.1930    3.4840 C.2    62  ASP62       0.3668
     83  OD1       -4.1150   -4.3770    3.1030 O.co2  62  ASP62      -0.2456
     84  OD2       -3.7490   -2.8070    4.5890 O.co2  62  ASP62      -0.2456
     85  N         -7.1990   -0.6960   -6.6790 N.3    91  ASN91      -0.1225
     86  CA        -8.1020   -1.6800   -6.0820 C.3    91  ASN91       0.1785
     87  C         -9.3690   -1.0100   -5.5400 C.2    91  ASN91       0.2597
     88  O        -10.4850   -1.4640   -5.8060 O.2    91  ASN91      -0.2718
     89  CB        -7.3630   -2.4460   -4.9730 C.3    91  ASN91       0.1169
     90  CG        -8.1980   -2.6750   -3.7260 C.2    91  ASN91       0.2627
     91  OD1       -9.1410   -3.4590   -3.7370 O.2    91  ASN91      -0.2716
     92  ND2       -7.8480   -1.9950   -2.6440 N.am   91  ASN91      -0.0877
     93  N         -9.1900    0.0880   -4.8120 N.am   92  CYS92      -0.1970
     94  CA       -10.3100    0.8170   -4.2370 C.3    92  CYS92       0.1712
     95  C        -11.1790    1.4280   -5.3340 C.2    92  CYS92       0.2296
     96  O        -12.4070    1.3950   -5.2510 O.2    92  CYS92      -0.2864
     97  CB        -9.7930    1.9070   -3.2910 C.3    92  CYS92       0.0983
     98  SG       -10.9110    3.3120   -3.0820 S.3    92  CYS92      -0.0798
     99  N        -13.1490   -1.8170   -7.1380 N.3    95  TYR95      -0.1227
    100  CA       -14.1530   -2.5290   -6.3550 C.3    95  TYR95       0.1736
    101  C        -15.2510   -1.5810   -5.8910 C.2    95  TYR95       0.2595
    102  O        -16.4350   -1.9260   -5.9170 O.2    95  TYR95      -0.2718
    103  CB       -13.5140   -3.2190   -5.1440 C.3    95  TYR95       0.0548
    104  CG       -14.4330   -4.2070   -4.4560 C.ar   95  TYR95      -0.0200
    105  CD1      -14.5500   -5.5180   -4.9080 C.ar   95  TYR95      -0.0009
    106  CD2      -15.1850   -3.8260   -3.3530 C.ar   95  TYR95      -0.0009
    107  CE1      -15.3920   -6.4200   -4.2770 C.ar   95  TYR95       0.0417
    108  CE2      -16.0270   -4.7190   -2.7170 C.ar   95  TYR95       0.0417
    109  CZ       -16.1280   -6.0150   -3.1810 C.ar   95  TYR95       0.1957
    110  OH       -16.9710   -6.9050   -2.5470 O.3    95  TYR95      -0.2866
    111  N        -14.8570   -0.3850   -5.4930 N.am   96  ASN96      -0.1960
    112  CA       -15.8020    0.5850   -4.9570 C.3    96  ASN96       0.1819
    113  C        -16.2280    1.5670   -6.0340 C.2    96  ASN96       0.2621
    114  O        -15.4880    1.8240   -6.9820 O.2    96  ASN96      -0.2715
    115  CB       -15.1920    1.3490   -3.7790 C.3    96  ASN96       0.1195
    116  CG       -14.7060    0.4390   -2.6670 C.2    96  ASN96       0.2630
    117  OD1      -15.4870   -0.2830   -2.0470 O.2    96  ASN96      -0.2716
    118  ND2      -13.4080    0.4780   -2.4050 N.am   96  ASN96      -0.0877
    119  N        -17.4240    2.1120   -5.8880 N.am   97  LYS97      -0.1977
    120  CA       -17.9440    3.0790   -6.8410 C.3    97  LYS97       0.1596
    121  C        -17.2720    4.4340   -6.6390 C.2    97  LYS97       0.2287
    122  O        -16.8640    4.7680   -5.5270 O.2    97  LYS97      -0.2864
    123  CB       -19.4650    3.2130   -6.7000 C.3    97  LYS97       0.0298
    124  CG       -19.9600    3.1890   -5.2620 C.3    97  LYS97       0.0038
    125  CD       -20.8860    4.3600   -4.9710 C.3    97  LYS97       0.0206
    126  CE       -22.2760    4.1210   -5.5380 C.3    97  LYS97       0.1093
    127  NZ       -22.6310    5.1110   -6.5880 N.3    97  LYS97      -0.1314
    128  N        -18.3770    7.1780   -6.2460 N.3    99  THR99      -0.1203
    129  CA       -19.1370    8.0300   -5.3440 C.3    99  THR99       0.1994
    130  C        -18.9990    7.5660   -3.8950 C.2    99  THR99       0.2618
    131  O        -19.6600    8.0930   -2.9980 O.2    99  THR99      -0.2717
    132  CB       -20.6240    8.0350   -5.7260 C.3    99  THR99       0.1784
    133  OG1      -20.8190    7.2520   -6.9160 O.3    99  THR99      -0.2211
    134  CG2      -21.1240    9.4530   -5.9500 C.3    99  THR99       0.0376
    135  N        -18.1510    6.5710   -3.6660 N.am  100  ASP100     -0.1959
    136  CA       -17.9690    6.0320   -2.3270 C.3   100  ASP100      0.1840
    137  C        -16.9880    6.8780   -1.5320 C.2   100  ASP100      0.2622
    138  O        -16.1260    7.5550   -2.0980 O.2   100  ASP100     -0.2715
    139  CB       -17.4800    4.5840   -2.3730 C.3   100  ASP100      0.1450
    140  CG       -18.0210    3.7620   -1.2180 C.2   100  ASP100      0.3671
    141  OD1      -17.8720    4.1900   -0.0540 O.co2 100  ASP100     -0.2456
    142  OD2      -18.6020    2.6910   -1.4730 O.co2 100  ASP100     -0.2456
    143  N        -17.1180    6.8150   -0.2190 N.am  101  ASP101     -0.1957
    144  CA       -16.2930    7.6090    0.6820 C.3   101  ASP101      0.1840
    145  C        -14.8440    7.1570    0.6110 C.2   101  ASP101      0.2621
    146  O        -13.9310    7.9780    0.5970 O.2   101  ASP101     -0.2715
    147  CB       -16.8040    7.4970    2.1210 C.3   101  ASP101      0.1450
    148  CG       -17.9460    8.4510    2.4090 C.2   101  ASP101      0.3671
    149  OD1      -18.9270    8.4730    1.6390 O.co2 101  ASP101     -0.2456
    150  OD2      -17.8660    9.1940    3.4050 O.co2 101  ASP101     -0.2456
    151  N        -14.6460    5.8440    0.5390 N.am  102  ILE102     -0.1977
    152  CA       -13.3010    5.2790    0.4660 C.3   102  ILE102      0.1596
    153  C        -12.5850    5.7510   -0.8010 C.2   102  ILE102      0.2287
    154  O        -11.3840    6.0190   -0.7820 O.2   102  ILE102     -0.2864
    155  CB       -13.3260    3.7290    0.5180 C.3   102  ILE102      0.0276
    156  CG1      -11.9340    3.1550    0.2240 C.3   102  ILE102      0.0022
    157  CG2      -14.3560    3.1670   -0.4510 C.3   102  ILE102      0.0022
    158  CD1      -11.0620    3.0210    1.4540 C.3   102  ILE102      0.0001
    159  N        -13.3130    8.6060   -2.4310 N.3   104  LEU104     -0.1231
    160  CA       -13.0890   10.0250   -2.2070 C.3   104  LEU104      0.1693
    161  C        -11.8430   10.2280   -1.3640 C.2   104  LEU104      0.2591
    162  O        -11.0600   11.1530   -1.5930 O.2   104  LEU104     -0.2718
    163  CB       -14.2930   10.6450   -1.5040 C.3   104  LEU104      0.0284
    164  CG       -15.0840   11.6520   -2.3360 C.3   104  LEU104      0.0019
    165  CD1      -16.5740   11.4890   -2.0830 C.3   104  LEU104      0.0001
    166  CD2      -14.6350   13.0700   -2.0210 C.3   104  LEU104      0.0001
    167  N        -11.6640    9.3430   -0.3970 N.am  105  MET105     -0.1979
    168  CA       -10.5080    9.3910    0.4730 C.3   105  MET105      0.1605
    169  C         -9.2430    9.0170   -0.2880 C.2   105  MET105      0.2287
    170  O         -8.2470    9.7310   -0.2240 O.2   105  MET105     -0.2864
    171  CB       -10.6970    8.4620    1.6760 C.3   105  MET105      0.0413
    172  CG       -11.7430    8.9530    2.6610 C.3   105  MET105      0.0598
    173  SD       -12.4710    7.6190    3.6290 S.3   105  MET105     -0.1393
    174  CE       -13.3710    8.5640    4.8530 C.3   105  MET105      0.0692
@<TRIPOS>BOND
     1    99   100    1
     2   114   113    2
     3   133   132    1
     4   120   123    1
     5   120   121    1
     6   120   119    1
     7   123   124    1
     8    85    86    1
     9   121   122    2
    10   127   126    1
    11   100   101    1
    12   100   103    1
    13   128   129    1
    14    86    87    1
    15    86    89    1
    16   113   119   am
    17   113   112    1
    18   134   132    1
    19   102   101    2
    20   101   111   am
    21    88    87    2
    22   132   129    1
    23    87    93   am
    24   126   125    1
    25   111   112    1
    26   129   130    1
    27    95    96    2
    28    95    94    1
    29   124   125    1
    30   103   104    1
    31    89    90    1
    32   112   115    1
    33   105   104   ar
    34   105   107   ar
    35    93    94    1
    36    68    67    2
    37   104   106   ar
    38   107   109   ar
    39    94    97    1
    40   130   135   am
    41   130   131    2
    42    67    66    1
    43   115   116    1
    44    91    90    2
    45    90    92   am
    46   135   136    1
    47   106   108   ar
    48    97    98    1
    49   109   108   ar
    50   109   110    1
    51    66    65    1
    52    66    69    1
    53   116   118   am
    54   116   117    2
    55   159   160    1
    56   139   136    1
    57   139   140    1
    58   164   165    1
    59   164   166    1
    60   164   163    1
    61   136   137    1
    62   160   163    1
    63   160   161    1
    64   138   137    2
    65    72    74   ar
    66    72    70   ar
    67    74    75   ar
    68    69    70    1
    69    70    71   ar
    70    75    76    1
    71    75    73   ar
    72    71    73   ar
    73   162   161    2
    74   137   143   am
    75   142   140   ar
    76   161   167   am
    77   140   141   ar
    78   153   154    2
    79   153   152    1
    80   157   155    1
    81   167   168    1
    82   169   170    2
    83   169   168    1
    84   143   144    1
    85    32    30   ar
    86    32    31   ar
    87   156   155    1
    88   156   158    1
    89    30    28   ar
    90   152   155    1
    91   152   151    1
    92   168   171    1
    93    31    29   ar
    94   151   145   am
    95    60    59    2
    96   146   145    2
    97   145   144    1
    98    77    78    1
    99   144   147    1
   100    80    79    2
   101    59    58    1
   102    47    46    1
   103    78    79    1
   104    78    81    1
   105    61    58    1
   106    61    62    1
   107    48    46    1
   108   149   148   ar
   109    58    57    1
   110   171   172    1
   111    28    27   ar
   112    29    27   ar
   113    46    43    1
   114   147   148    1
   115    64    62    1
   116    63    62    1
   117    27    26    1
   118   148   150   ar
   119    81    82    1
   120   172   173    1
   121    45    44    2
   122    83    82   ar
   123    43    44    1
   124    43    42    1
   125    82    84   ar
   126   173   174    1
   127    26    23    1
   128    23    22    1
   129    23    24    1
   130    19    20    1
   131    19    16    1
   132    18    17    2
   133    20    21    1
   134    56    54    1
   135    22    17   am
   136    52    51    2
   137    17    16    1
   138    25    24    2
   139    36    35    2
   140    21    15    1
   141    53    54    1
   142    53    50    1
   143    51    50    1
   144    16    15    1
   145    54    55    1
   146    15     3   am
   147    35    34    1
   148    50    49    1
   149     1     2    1
   150     3     2    1
   151     3     4    2
   152    33    34    1
   153     9     7   ar
   154     9    10   ar
   155    34    37    1
   156     7     6   ar
   157     2     5    1
   158    12    10   ar
   159    12    14   ar
   160    10     8   ar
   161    37    38    1
   162     6     8   ar
   163     6     5    1
   164    14    13   ar
   165     8    11   ar
   166    13    11   ar
   167    40    39    2
   168    38    39    1
   169    39    41   am
