@<TRIPOS>MOLECULE
tmp/2l65A01.pdb
 88 88 0 0 0
SMALL
GASTEIGER

@<TRIPOS>ATOM
      1  N          6.0060  -13.4180   -1.8190 N.3    40  VAL40      -0.1245
      2  CA         5.1240  -12.2770   -2.0140 C.3    40  VAL40       0.1561
      3  C          3.6750  -12.7500   -1.9860 C.2    40  VAL40       0.2260
      4  O          3.2780  -13.6120   -2.7710 O.2    40  VAL40      -0.2867
      5  CB         5.4330  -11.5020   -3.3210 C.3    40  VAL40       0.0252
      6  CG1        5.4500  -12.4230   -4.5350 C.3    40  VAL40       0.0019
      7  CG2        4.4590  -10.3460   -3.5200 C.3    40  VAL40       0.0019
      8  N         10.0900   -9.2050    2.9580 N.3    63  HIS63      -0.1226
      9  CA         9.9790   -7.7870    2.6390 C.3    63  HIS63       0.1752
     10  C          8.8770   -7.0980    3.4430 C.2    63  HIS63       0.2597
     11  O          8.0390   -7.7530    4.0710 O.2    63  HIS63      -0.2718
     12  CB         9.7860   -7.5710    1.1250 C.3    63  HIS63       0.0759
     13  CG         8.4430   -7.9780    0.5850 C.ar   63  HIS63       0.0818
     14  ND1        7.6240   -7.0750   -0.0450 N.ar   63  HIS63      -0.2268
     15  CD2        7.8320   -9.1890    0.6080 C.ar   63  HIS63       0.1154
     16  CE1        6.5380   -7.7500   -0.3880 C.ar   63  HIS63       0.1986
     17  NE2        6.6160   -9.0360   -0.0130 N.ar   63  HIS63      -0.2212
     18  N          8.8960   -5.7750    3.4250 N.am   64  THR64      -0.1939
     19  CA         7.9110   -4.9810    4.1320 C.3    64  THR64       0.2028
     20  C          7.6620   -3.6740    3.3830 C.2    64  THR64       0.2642
     21  O          8.5550   -3.1580    2.7020 O.2    64  THR64      -0.2714
     22  CB         8.3330   -4.6980    5.5950 C.3    64  THR64       0.1808
     23  OG1        7.3200   -3.9260    6.2570 O.3    64  THR64      -0.2208
     24  CG2        9.6580   -3.9510    5.6540 C.3    64  THR64       0.0379
     25  N          6.4470   -3.1550    3.5090 N.am   65  PHE65      -0.1973
     26  CA         6.0530   -1.9220    2.8380 C.3    65  PHE65       0.1639
     27  C          6.3630   -0.7040    3.7010 C.2    65  PHE65       0.2290
     28  O          6.8780    0.3070    3.2150 O.2    65  PHE65      -0.2864
     29  CB         4.5520   -1.9510    2.5040 C.3    65  PHE65       0.0560
     30  CG         4.0820   -3.2470    1.9000 C.ar   65  PHE65      -0.0200
     31  CD1        3.6410   -4.2820    2.7100 C.ar   65  PHE65      -0.0042
     32  CD2        4.0850   -3.4340    0.5260 C.ar   65  PHE65      -0.0042
     33  CE1        3.2130   -5.4770    2.1650 C.ar   65  PHE65      -0.0003
     34  CE2        3.6590   -4.6280   -0.0260 C.ar   65  PHE65      -0.0003
     35  CZ         3.2230   -5.6500    0.7950 C.ar   65  PHE65      -0.0000
     36  N          5.0250    4.8740    4.1970 N.3    81  TRP81      -0.1227
     37  CA         5.6880    4.0080    3.2230 C.3    81  TRP81       0.1737
     38  C          7.1830    4.2970    3.0970 C.2    81  TRP81       0.2595
     39  O          7.6510    5.3970    3.4070 O.2    81  TRP81      -0.2718
     40  CB         5.0160    4.1440    1.8530 C.3    81  TRP81       0.0564
     41  CG         4.3560    2.8870    1.3700 C.ar   81  TRP81       0.0003
     42  CD1        4.6660    2.1770    0.2440 C.ar   81  TRP81       0.0946
     43  CD2        3.2680    2.1920    1.9920 C.ar   81  TRP81       0.0152
     44  NE1        3.8390    1.0860    0.1260 N.ar   81  TRP81      -0.2442
     45  CE2        2.9720    1.0710    1.1870 C.ar   81  TRP81       0.0810
     46  CE3        2.5160    2.4060    3.1490 C.ar   81  TRP81       0.0012
     47  CZ2        1.9550    0.1700    1.5030 C.ar   81  TRP81       0.0191
     48  CZ3        1.5120    1.5100    3.4610 C.ar   81  TRP81       0.0001
     49  CH2        1.2390    0.4060    2.6430 C.ar   81  TRP81       0.0015
     50  N          7.9220    3.2950    2.6300 N.am   82  ARG82      -0.1966
     51  CA         9.3680    3.4100    2.4330 C.3    82  ARG82       0.1729
     52  C          9.6610    3.6520    0.9530 C.2    82  ARG82       0.2616
     53  O          8.7550    3.9830    0.1890 O.2    82  ARG82      -0.2715
     54  CB        10.0650    2.1210    2.8850 C.3    82  ARG82       0.0348
     55  CG         9.6910    1.6520    4.2840 C.3    82  ARG82       0.0492
     56  CD        10.1080    0.2050    4.5070 C.3    82  ARG82       0.2205
     57  NE        11.5250    0.0840    4.8440 N.pl3  82  ARG82      -0.0865
     58  CZ        12.2760   -0.9860    4.5710 C.cat  82  ARG82       0.5346
     59  NH1       11.7630   -2.0160    3.9010 N.pl3  82  ARG82       0.1354
     60  NH2       13.5440   -1.0170    4.9620 N.pl3  82  ARG82       0.1354
     61  N         10.9160    3.4720    0.5460 N.am   83  LEU83      -0.1963
     62  CA        11.2980    3.6640   -0.8480 C.3    83  LEU83       0.1728
     63  C         12.2760    2.5890   -1.3110 C.2    83  LEU83       0.2616
     64  O         12.9040    1.9190   -0.4930 O.2    83  LEU83      -0.2715
     65  CB        11.8380    5.0770   -1.1040 C.3    83  LEU83       0.0311
     66  CG        12.9390    5.5770   -0.1730 C.3    83  LEU83       0.0022
     67  CD1       14.2870    5.5340   -0.8730 C.3    83  LEU83       0.0001
     68  CD2       12.6290    6.9870    0.3090 C.3    83  LEU83       0.0001
     69  N         12.3900    2.4290   -2.6240 N.am   84  ASN84      -0.1972
     70  CA        13.2730    1.4260   -3.2170 C.3    84  ASN84       0.1688
     71  C         14.7410    1.8720   -3.1900 C.2    84  ASN84       0.2292
     72  O         15.1270    2.7460   -2.4070 O.2    84  ASN84      -0.2864
     73  CB        12.8260    1.1330   -4.6560 C.3    84  ASN84       0.1181
     74  CG        13.1680   -0.2730   -5.1140 C.2    84  ASN84       0.2629
     75  OD1       14.2500   -0.5180   -5.6390 O.2    84  ASN84      -0.2716
     76  ND2       12.2460   -1.2020   -4.9240 N.am   84  ASN84      -0.0877
     77  N         10.8990    1.5260   -8.8760 N.3   132  GLY132     -0.1210
     78  CA        10.5120    0.2470   -8.3190 C.3   132  GLY132      0.1956
     79  C          9.0530    0.1980   -7.9050 C.2   132  GLY132      0.2611
     80  O          8.3050   -0.6660   -8.3550 O.2   132  GLY132     -0.2717
     81  N          8.6350    1.1500   -7.0800 N.am  133  MET133     -0.1979
     82  CA         7.2600    1.1910   -6.5870 C.3   133  MET133      0.1605
     83  C          6.2370    1.4630   -7.6840 C.2   133  MET133      0.2287
     84  O          5.1450    0.8960   -7.6730 O.2   133  MET133     -0.2864
     85  CB         7.1140    2.2190   -5.4650 C.3   133  MET133      0.0413
     86  CG         7.3820    1.6700   -4.0720 C.3   133  MET133      0.0598
     87  SD         9.1120    1.2180   -3.8090 S.3   133  MET133     -0.1393
     88  CE         9.0580    0.7180   -2.0880 C.3   133  MET133      0.0692
@<TRIPOS>BOND
     1    77    78    1
     2    80    79    2
     3    78    79    1
     4    79    81   am
     5    83    84    2
     6    83    82    1
     7    81    82    1
     8    82    85    1
     9    75    74    2
    10    85    86    1
    11    74    76   am
    12    74    73    1
    13    73    70    1
    14     6     5    1
    15    86    87    1
    16    87    88    1
    17     7     5    1
    18     5     2    1
    19    70    71    1
    20    70    69    1
    21    71    72    2
    22     4     3    2
    23    69    63   am
    24     2     3    1
    25     2     1    1
    26    63    62    1
    27    63    64    2
    28    65    62    1
    29    65    66    1
    30    67    66    1
    31    62    61    1
    32    16    14   ar
    33    16    17   ar
    34    66    68    1
    35    14    13   ar
    36    34    32   ar
    37    34    35   ar
    38    17    15   ar
    39    44    42   ar
    40    44    45   ar
    41    53    52    2
    42    42    41   ar
    43    32    30   ar
    44    61    52   am
    45    13    15   ar
    46    13    12    1
    47    35    33   ar
    48    52    51    1
    49    12     9    1
    50    45    47   ar
    51    45    43   ar
    52    41    40    1
    53    41    43   ar
    54    47    49   ar
    55    40    37    1
    56    30    29    1
    57    30    31   ar
    58    43    46   ar
    59    33    31   ar
    60    51    50    1
    61    51    54    1
    62    29    26    1
    63    50    38   am
    64     9     8    1
    65     9    10    1
    66    49    48   ar
    67    21    20    2
    68    26    25    1
    69    26    27    1
    70    54    55    1
    71    38    37    1
    72    38    39    2
    73    46    48   ar
    74    28    27    2
    75    37    36    1
    76    20    25   am
    77    20    19    1
    78    18    10   am
    79    18    19    1
    80    10    11    2
    81    59    58    1
    82    19    22    1
    83    55    56    1
    84    56    57    1
    85    58    57    2
    86    58    60    1
    87    22    24    1
    88    22    23    1
