@<TRIPOS>MOLECULE
tmp/2l65A02.pdb
 112 111 0 0 0
SMALL
GASTEIGER

@<TRIPOS>ATOM
      1  N         -5.5290  -11.7420   -3.7940 N.3    30  TRP30      -0.1241
      2  CA        -5.4320  -10.7820   -4.8870 C.3    30  TRP30       0.1605
      3  C         -5.1480  -11.5090   -6.2020 C.2    30  TRP30       0.2264
      4  O         -5.5000  -12.6780   -6.3560 O.2    30  TRP30      -0.2867
      5  CB        -4.3440   -9.7440   -4.6060 C.3    30  TRP30       0.0550
      6  CG        -4.5220   -8.9620   -3.3370 C.ar   30  TRP30       0.0003
      7  CD1       -5.6720   -8.7850   -2.6180 C.ar   30  TRP30       0.0946
      8  CD2       -3.5030   -8.2380   -2.6420 C.ar   30  TRP30       0.0152
      9  NE1       -5.4240   -7.9970   -1.5180 N.ar   30  TRP30      -0.2442
     10  CE2       -4.0990   -7.6520   -1.5080 C.ar   30  TRP30       0.0810
     11  CE3       -2.1400   -8.0340   -2.8690 C.ar   30  TRP30       0.0012
     12  CZ2       -3.3770   -6.8730   -0.6050 C.ar   30  TRP30       0.0191
     13  CZ3       -1.4260   -7.2620   -1.9730 C.ar   30  TRP30       0.0001
     14  CH2       -2.0440   -6.6900   -0.8550 C.ar   30  TRP30       0.0015
     15  N         -0.5520   -8.5830   -9.4960 N.3    33  ASN33      -0.1240
     16  CA         0.8610   -8.8550   -9.7240 C.3    33  ASN33       0.1653
     17  C          1.4420   -9.6680   -8.5810 C.2    33  ASN33       0.2266
     18  O          2.5870   -9.4760   -8.1850 O.2    33  ASN33      -0.2867
     19  CB         1.6450   -7.5480   -9.9100 C.3    33  ASN33       0.1155
     20  CG         2.9070   -7.7320  -10.7390 C.2    33  ASN33       0.2627
     21  OD1        2.9920   -8.6380  -11.5700 O.2    33  ASN33      -0.2716
     22  ND2        3.8930   -6.8700  -10.5270 N.am   33  ASN33      -0.0877
     23  N         10.0900   -9.2050    2.9580 N.3    63  HIS63      -0.1241
     24  CA         9.9790   -7.7870    2.6390 C.3    63  HIS63       0.1621
     25  C          8.8770   -7.0980    3.4430 C.2    63  HIS63       0.2264
     26  O          8.0390   -7.7530    4.0710 O.2    63  HIS63      -0.2867
     27  CB         9.7860   -7.5710    1.1250 C.3    63  HIS63       0.0745
     28  CG         8.4430   -7.9780    0.5850 C.ar   63  HIS63       0.0817
     29  ND1        7.6240   -7.0750   -0.0450 N.ar   63  HIS63      -0.2268
     30  CD2        7.8320   -9.1890    0.6080 C.ar   63  HIS63       0.1154
     31  CE1        6.5380   -7.7500   -0.3880 C.ar   63  HIS63       0.1986
     32  NE2        6.6160   -9.0360   -0.0130 N.ar   63  HIS63      -0.2212
     33  N          6.4470   -3.1550    3.5090 N.3    65  PHE65      -0.1241
     34  CA         6.0530   -1.9220    2.8380 C.3    65  PHE65       0.1605
     35  C          6.3630   -0.7040    3.7010 C.2    65  PHE65       0.2264
     36  O          6.8780    0.3070    3.2150 O.2    65  PHE65      -0.2867
     37  CB         4.5520   -1.9510    2.5040 C.3    65  PHE65       0.0534
     38  CG         4.0820   -3.2470    1.9000 C.ar   65  PHE65      -0.0203
     39  CD1        3.6410   -4.2820    2.7100 C.ar   65  PHE65      -0.0042
     40  CD2        4.0850   -3.4340    0.5260 C.ar   65  PHE65      -0.0042
     41  CE1        3.2130   -5.4770    2.1650 C.ar   65  PHE65      -0.0003
     42  CE2        3.6590   -4.6280   -0.0260 C.ar   65  PHE65      -0.0003
     43  CZ         3.2230   -5.6500    0.7950 C.ar   65  PHE65      -0.0000
     44  N          5.0250    4.8740    4.1970 N.3    81  TRP81      -0.1241
     45  CA         5.6880    4.0080    3.2230 C.3    81  TRP81       0.1605
     46  C          7.1830    4.2970    3.0970 C.2    81  TRP81       0.2264
     47  O          7.6510    5.3970    3.4070 O.2    81  TRP81      -0.2867
     48  CB         5.0160    4.1440    1.8530 C.3    81  TRP81       0.0550
     49  CG         4.3560    2.8870    1.3700 C.ar   81  TRP81       0.0003
     50  CD1        4.6660    2.1770    0.2440 C.ar   81  TRP81       0.0946
     51  CD2        3.2680    2.1920    1.9920 C.ar   81  TRP81       0.0152
     52  NE1        3.8390    1.0860    0.1260 N.ar   81  TRP81      -0.2442
     53  CE2        2.9720    1.0710    1.1870 C.ar   81  TRP81       0.0810
     54  CE3        2.5160    2.4060    3.1490 C.ar   81  TRP81       0.0012
     55  CZ2        1.9550    0.1700    1.5030 C.ar   81  TRP81       0.0191
     56  CZ3        1.5120    1.5100    3.4610 C.ar   81  TRP81       0.0001
     57  CH2        1.2390    0.4060    2.6430 C.ar   81  TRP81       0.0015
     58  N         12.3900    2.4290   -2.6240 N.3    84  ASN84      -0.1240
     59  CA        13.2730    1.4260   -3.2170 C.3    84  ASN84       0.1653
     60  C         14.7410    1.8720   -3.1900 C.2    84  ASN84       0.2266
     61  O         15.1270    2.7460   -2.4070 O.2    84  ASN84      -0.2867
     62  CB        12.8260    1.1330   -4.6560 C.3    84  ASN84       0.1155
     63  CG        13.1680   -0.2730   -5.1140 C.2    84  ASN84       0.2627
     64  OD1       14.2500   -0.5180   -5.6390 O.2    84  ASN84      -0.2716
     65  ND2       12.2460   -1.2020   -4.9240 N.am   84  ASN84      -0.0877
     66  N         10.8990    1.5260   -8.8760 N.3   132  GLY132     -0.1210
     67  CA        10.5120    0.2470   -8.3190 C.3   132  GLY132      0.1956
     68  C          9.0530    0.1980   -7.9050 C.2   132  GLY132      0.2611
     69  O          8.3050   -0.6660   -8.3550 O.2   132  GLY132     -0.2717
     70  N          8.6350    1.1500   -7.0800 N.am  133  MET133     -0.1979
     71  CA         7.2600    1.1910   -6.5870 C.3   133  MET133      0.1605
     72  C          6.2370    1.4630   -7.6840 C.2   133  MET133      0.2287
     73  O          5.1450    0.8960   -7.6730 O.2   133  MET133     -0.2864
     74  CB         7.1140    2.2190   -5.4650 C.3   133  MET133      0.0413
     75  CG         7.3820    1.6700   -4.0720 C.3   133  MET133      0.0598
     76  SD         9.1120    1.2180   -3.8090 S.3   133  MET133     -0.1393
     77  CE         9.0580    0.7180   -2.0880 C.3   133  MET133      0.0692
     78  N          6.2400    0.4840  -10.5860 N.3   135  LYS135     -0.1231
     79  CA         6.0490   -0.7130  -11.3900 C.3   135  LYS135      0.1693
     80  C          5.0820   -1.6870  -10.7210 C.2   135  LYS135      0.2593
     81  O          5.2600   -2.9050  -10.7880 O.2   135  LYS135     -0.2718
     82  CB         7.3940   -1.3930  -11.6450 C.3   135  LYS135      0.0285
     83  CG         8.4210   -0.4790  -12.2940 C.3   135  LYS135      0.0035
     84  CD         9.6840   -1.2390  -12.6600 C.3   135  LYS135      0.0206
     85  CE        10.6790   -0.3450  -13.3860 C.3   135  LYS135      0.1093
     86  NZ        11.8240   -1.1200  -13.9260 N.3   135  LYS135     -0.1314
     87  N          4.0420   -1.1420  -10.1050 N.am  136  GLY136     -0.1942
     88  CA         3.0620   -1.9680   -9.4370 C.3   136  GLY136      0.2014
     89  C          2.0640   -1.1730   -8.6110 C.2   136  GLY136      0.2638
     90  O          0.8970   -1.5480   -8.5300 O.2   136  GLY136     -0.2714
     91  N          2.5160   -0.0790   -8.0040 N.am  137  TRP137     -0.1973
     92  CA         1.6490    0.7500   -7.1640 C.3   137  TRP137      0.1640
     93  C          0.4000    1.2710   -7.8960 C.2   137  TRP137      0.2290
     94  O         -0.7170    0.9160   -7.5260 O.2   137  TRP137     -0.2864
     95  CB         2.4260    1.8780   -6.4720 C.3   137  TRP137      0.0576
     96  CG         1.6890    2.5060   -5.3310 C.ar  137  TRP137      0.0006
     97  CD1        1.4250    1.9360   -4.1200 C.ar  137  TRP137      0.0946
     98  CD2        1.1240    3.8210   -5.2850 C.ar  137  TRP137      0.0152
     99  NE1        0.7320    2.8120   -3.3230 N.ar  137  TRP137     -0.2442
    100  CE2        0.5340    3.9770   -4.0140 C.ar  137  TRP137      0.0810
    101  CE3        1.0580    4.8820   -6.1930 C.ar  137  TRP137      0.0012
    102  CZ2       -0.1130    5.1490   -3.6300 C.ar  137  TRP137      0.0191
    103  CZ3        0.4180    6.0450   -5.8100 C.ar  137  TRP137      0.0001
    104  CH2       -0.1590    6.1700   -4.5390 C.ar  137  TRP137      0.0015
    105  N         -1.7300   -1.7060   -9.3540 N.3   140  ILE140     -0.1245
    106  CA        -2.5300   -2.4710   -8.4020 C.3   140  ILE140      0.1561
    107  C         -3.7500   -1.6810   -7.9360 C.2   140  ILE140      0.2260
    108  O         -4.8080   -2.2530   -7.6860 O.2   140  ILE140     -0.2867
    109  CB        -1.7020   -2.9910   -7.1980 C.3   140  ILE140      0.0252
    110  CG1       -2.3700   -4.2160   -6.5660 C.3   140  ILE140      0.0019
    111  CG2       -1.4760   -1.9060   -6.1510 C.3   140  ILE140      0.0019
    112  CD1       -1.4790   -4.9690   -5.5990 C.3   140  ILE140      0.0001
@<TRIPOS>BOND
     1    86    85    1
     2    85    84    1
     3    84    83    1
     4    83    82    1
     5    82    79    1
     6    21    20    2
     7    79    80    1
     8    79    78    1
     9    81    80    2
    10    20    22   am
    11    20    19    1
    12    80    87   am
    13    87    88    1
    14    19    16    1
    15    16    15    1
    16    16    17    1
    17    88    89    1
    18   105   106    1
    19    66    67    1
    20    89    90    2
    21    89    91   am
    22    17    18    2
    23   106   107    1
    24   106   109    1
    25    69    68    2
    26    67    68    1
    27    91    92    1
    28   107   108    2
    29    68    70   am
    30    93    94    2
    31    93    92    1
    32    72    73    2
    33    72    71    1
    34   109   110    1
    35   109   111    1
    36    92    95    1
    37    70    71    1
    38    71    74    1
    39   110   112    1
    40    95    96    1
    41     4     3    2
    42     3     2    1
    43   101   103   ar
    44   101    98   ar
    45   103   104   ar
    46    64    63    2
    47    74    75    1
    48    96    98   ar
    49    96    97   ar
    50    98   100   ar
    51    63    65   am
    52    63    62    1
    53     2     5    1
    54     2     1    1
    55    62    59    1
    56     5     6    1
    57   104   102   ar
    58    97    99   ar
    59    75    76    1
    60   100   102   ar
    61   100    99   ar
    62    76    77    1
    63     6     8   ar
    64     6     7   ar
    65    59    60    1
    66    59    58    1
    67    60    61    2
    68    11     8   ar
    69    11    13   ar
    70     8    10   ar
    71     7     9   ar
    72    13    14   ar
    73     9    10   ar
    74    10    12   ar
    75    14    12   ar
    76    31    29   ar
    77    31    32   ar
    78    29    28   ar
    79    42    40   ar
    80    42    43   ar
    81    32    30   ar
    82    52    50   ar
    83    52    53   ar
    84    50    49   ar
    85    40    38   ar
    86    28    30   ar
    87    28    27    1
    88    43    41   ar
    89    27    24    1
    90    53    55   ar
    91    53    51   ar
    92    49    48    1
    93    49    51   ar
    94    55    57   ar
    95    48    45    1
    96    38    37    1
    97    38    39   ar
    98    51    54   ar
    99    41    39   ar
   100    37    34    1
   101    24    23    1
   102    24    25    1
   103    57    56   ar
   104    34    33    1
   105    34    35    1
   106    46    45    1
   107    46    47    2
   108    54    56   ar
   109    36    35    2
   110    45    44    1
   111    25    26    2
