@<TRIPOS>MOLECULE
tmp/2l6xA00.pdb
 187 182 0 0 0
SMALL
GASTEIGER

@<TRIPOS>ATOM
      1  N         12.7520  -17.1510   15.4050 N.3    59  TYR59      -0.1241
      2  CA        13.0950  -15.7840   15.0320 C.3    59  TYR59       0.1605
      3  C         11.8670  -14.8810   15.0830 C.2    59  TYR59       0.2264
      4  O         11.8980  -13.8050   15.6810 O.2    59  TYR59      -0.2867
      5  CB        13.7070  -15.7530   13.6300 C.3    59  TYR59       0.0534
      6  CG        14.6910  -14.6250   13.4240 C.ar   59  TYR59      -0.0201
      7  CD1       14.2670  -13.3020   13.3940 C.ar   59  TYR59      -0.0009
      8  CD2       16.0470  -14.8810   13.2600 C.ar   59  TYR59      -0.0009
      9  CE1       15.1630  -12.2680   13.2040 C.ar   59  TYR59       0.0417
     10  CE2       16.9510  -13.8530   13.0710 C.ar   59  TYR59       0.0417
     11  CZ        16.5040  -12.5490   13.0440 C.ar   59  TYR59       0.1957
     12  OH        17.4000  -11.5210   12.8560 O.3    59  TYR59      -0.2866
     13  N         20.2470  -17.9140   14.6780 N.3    81  TRP81      -0.1241
     14  CA        20.6530  -17.5860   13.3160 C.3    81  TRP81       0.1605
     15  C         21.9350  -18.3210   12.9380 C.2    81  TRP81       0.2264
     16  O         22.0660  -18.8290   11.8240 O.2    81  TRP81      -0.2867
     17  CB        20.8550  -16.0770   13.1710 C.3    81  TRP81       0.0550
     18  CG        21.1180  -15.6450   11.7600 C.ar   81  TRP81       0.0003
     19  CD1       20.7610  -16.3080   10.6200 C.ar   81  TRP81       0.0946
     20  CD2       21.7960  -14.4560   11.3400 C.ar   81  TRP81       0.0152
     21  NE1       21.1760  -15.6020    9.5170 N.ar   81  TRP81      -0.2442
     22  CE2       21.8130  -14.4620    9.9320 C.ar   81  TRP81       0.0810
     23  CE3       22.3880  -13.3870   12.0160 C.ar   81  TRP81       0.0012
     24  CZ2       22.4000  -13.4400    9.1900 C.ar   81  TRP81       0.0191
     25  CZ3       22.9710  -12.3730   11.2790 C.ar   81  TRP81       0.0001
     26  CH2       22.9730  -12.4050    9.8790 C.ar   81  TRP81       0.0015
     27  N         20.9600  -21.9240   12.6220 N.3    84  THR84      -0.1203
     28  CA        20.0210  -22.2190   11.5470 C.3    84  THR84       0.1994
     29  C         20.6540  -21.9740   10.1820 C.2    84  THR84       0.2617
     30  O         20.2950  -22.6180    9.1960 O.2    84  THR84      -0.2717
     31  CB        18.7430  -21.3680   11.6680 C.3    84  THR84       0.1784
     32  OG1       19.0840  -19.9790   11.7490 O.3    84  THR84      -0.2211
     33  CG2       17.9390  -21.7700   12.8950 C.3    84  THR84       0.0376
     34  N         21.5970  -21.0390   10.1310 N.am   85  VAL85      -0.1979
     35  CA        22.2820  -20.7100    8.8870 C.3    85  VAL85       0.1595
     36  C         23.0100  -21.9250    8.3220 C.2    85  VAL85       0.2287
     37  O         22.7600  -22.3640    7.2000 O.2    85  VAL85      -0.2864
     38  CB        23.2940  -19.5660    9.0880 C.3    85  VAL85       0.0276
     39  CG1       24.4600  -19.7100    8.1220 C.3    85  VAL85       0.0022
     40  CG2       22.6130  -18.2170    8.9180 C.3    85  VAL85       0.0022
     41  N         20.3450  -25.0220    7.8780 N.3    88  LEU88      -0.1245
     42  CA        19.4850  -24.9310    6.7030 C.3    88  LEU88       0.1561
     43  C         20.2990  -25.0670    5.4200 C.2    88  LEU88       0.2260
     44  O         19.8570  -25.6950    4.4580 O.2    88  LEU88      -0.2867
     45  CB        18.7290  -23.6010    6.7020 C.3    88  LEU88       0.0270
     46  CG        19.5470  -22.3640    6.3320 C.3    88  LEU88       0.0019
     47  CD1       19.5180  -22.1340    4.8290 C.3    88  LEU88       0.0001
     48  CD2       19.0270  -21.1400    7.0710 C.3    88  LEU88       0.0001
     49  N         29.4330  -12.5880    8.2420 N.3   116  VAL116     -0.1245
     50  CA        28.2240  -11.7790    8.3370 C.3   116  VAL116      0.1561
     51  C         27.7240  -11.7060    9.7750 C.2   116  VAL116      0.2260
     52  O         27.4810  -10.6210   10.3040 O.2   116  VAL116     -0.2867
     53  CB        27.1020  -12.3400    7.4430 C.3   116  VAL116      0.0252
     54  CG1       25.8940  -11.4150    7.4590 C.3   116  VAL116      0.0019
     55  CG2       27.6070  -12.5480    6.0230 C.3   116  VAL116      0.0019
     56  N         30.0550   -9.5910   12.1610 N.3   119  VAL119     -0.1231
     57  CA        29.8550   -8.1490   12.0950 C.3   119  VAL119      0.1692
     58  C         28.5380   -7.7450   12.7480 C.2   119  VAL119      0.2592
     59  O         28.4890   -6.8060   13.5420 O.2   119  VAL119     -0.2718
     60  CB        29.8680   -7.6460   10.6390 C.3   119  VAL119      0.0266
     61  CG1       29.6360   -6.1440   10.5900 C.3   119  VAL119      0.0020
     62  CG2       31.1790   -8.0140    9.9600 C.3   119  VAL119      0.0020
     63  N         27.4720   -8.4630   12.4090 N.am  120  PHE120     -0.1976
     64  CA        26.1530   -8.1800   12.9630 C.3   120  PHE120      0.1639
     65  C         26.1620   -8.3060   14.4830 C.2   120  PHE120      0.2290
     66  O         25.5370   -7.5140   15.1870 O.2   120  PHE120     -0.2864
     67  CB        25.1120   -9.1300   12.3670 C.3   120  PHE120      0.0560
     68  CG        23.7660   -9.0360   13.0280 C.ar  120  PHE120     -0.0200
     69  CD1       22.9240   -7.9680   12.7640 C.ar  120  PHE120     -0.0042
     70  CD2       23.3440  -10.0150   13.9120 C.ar  120  PHE120     -0.0042
     71  CE1       21.6860   -7.8780   13.3710 C.ar  120  PHE120     -0.0003
     72  CE2       22.1060   -9.9310   14.5220 C.ar  120  PHE120     -0.0003
     73  CZ        21.2760   -8.8610   14.2500 C.ar  120  PHE120     -0.0000
     74  N         26.8800    0.8330   12.3600 N.3   130  ALA130     -0.1245
     75  CA        26.9910   -0.3570   11.5250 C.3   130  ALA130      0.1562
     76  C         25.9090   -0.3770   10.4520 C.2   130  ALA130      0.2260
     77  O         26.0350   -1.0690    9.4420 O.2   130  ALA130     -0.2867
     78  CB        26.9110   -1.6120   12.3820 C.3   130  ALA130      0.0290
     79  N         26.8650   -0.9240    6.8230 N.3   134  ALA134     -0.1245
     80  CA        26.2800   -2.2270    6.5300 C.3   134  ALA134      0.1562
     81  C         26.1850   -2.4600    5.0260 C.2   134  ALA134      0.2260
     82  O         26.3140   -3.5900    4.5540 O.2   134  ALA134     -0.2867
     83  CB        24.9060   -2.3450    7.1730 C.3   134  ALA134      0.0290
     84  N         30.0520   -3.5680    3.8620 N.3   137  ILE137     -0.1231
     85  CA        30.3650   -4.9250    4.2920 C.3   137  ILE137      0.1692
     86  C         29.4270   -5.9370    3.6440 C.2   137  ILE137      0.2592
     87  O         29.8600   -6.9880    3.1730 O.2   137  ILE137     -0.2718
     88  CB        30.2760   -5.0650    5.8230 C.3   137  ILE137      0.0266
     89  CG1       28.9880   -4.4240    6.3420 C.3   137  ILE137      0.0019
     90  CG2       31.4920   -4.4340    6.4840 C.3   137  ILE137      0.0020
     91  CD1       28.8630   -4.4510    7.8490 C.3   137  ILE137      0.0001
     92  N         28.1380   -5.6120    3.6220 N.am  138  GLY138     -0.1957
     93  CA        27.1580   -6.5020    3.0280 C.3   138  GLY138      0.1869
     94  C         27.3490   -6.6600    1.5330 C.2   138  GLY138      0.2309
     95  O         27.3710   -7.7780    1.0180 O.2   138  GLY138     -0.2863
     96  N         28.2260  -10.0070   -0.3130 N.3   142  TRP142     -0.1241
     97  CA        27.2330  -10.4930   -1.2650 C.3   142  TRP142      0.1605
     98  C         27.8770  -10.8090   -2.6100 C.2   142  TRP142      0.2264
     99  O         27.7540  -11.9220   -3.1220 O.2   142  TRP142     -0.2867
    100  CB        26.1230   -9.4570   -1.4480 C.3   142  TRP142      0.0550
    101  CG        25.4860   -9.5020   -2.8040 C.ar  142  TRP142      0.0003
    102  CD1       24.8900  -10.5800   -3.3940 C.ar  142  TRP142      0.0946
    103  CD2       25.3840   -8.4230   -3.7400 C.ar  142  TRP142      0.0152
    104  NE1       24.4230  -10.2360   -4.6400 N.ar  142  TRP142     -0.2442
    105  CE2       24.7130   -8.9190   -4.8750 C.ar  142  TRP142      0.0810
    106  CE3       25.7920   -7.0870   -3.7280 C.ar  142  TRP142      0.0012
    107  CZ2       24.4440   -8.1230   -5.9860 C.ar  142  TRP142      0.0191
    108  CZ3       25.5240   -6.2990   -4.8310 C.ar  142  TRP142      0.0001
    109  CH2       24.8550   -6.8190   -5.9470 C.ar  142  TRP142      0.0015
    110  N         17.9300  -15.5030   -2.6280 N.3   176  ILE176     -0.1245
    111  CA        18.9090  -15.1230   -1.6160 C.3   176  ILE176      0.1561
    112  C         19.4880  -13.7420   -1.9030 C.2   176  ILE176      0.2260
    113  O         19.5950  -12.9050   -1.0060 O.2   176  ILE176     -0.2867
    114  CB        20.0600  -16.1430   -1.5360 C.3   176  ILE176      0.0252
    115  CG1       19.5410  -17.4930   -1.0350 C.3   176  ILE176      0.0019
    116  CG2       21.1650  -15.6250   -0.6270 C.3   176  ILE176      0.0019
    117  CD1       19.3290  -17.5410    0.4620 C.3   176  ILE176      0.0001
    118  N         18.4340  -10.7130    0.4930 N.3   180  TRP180     -0.1241
    119  CA        19.5940  -10.1690    1.1900 C.3   180  TRP180      0.1605
    120  C         19.8940   -8.7500    0.7220 C.2   180  TRP180      0.2264
    121  O         20.3440   -7.9110    1.5020 O.2   180  TRP180     -0.2867
    122  CB        20.8150  -11.0630    0.9650 C.3   180  TRP180      0.0550
    123  CG        20.7410  -12.3660    1.7010 C.ar  180  TRP180      0.0003
    124  CD1       19.6120  -12.9950    2.1420 C.ar  180  TRP180      0.0946
    125  CD2       21.8420  -13.1970    2.0850 C.ar  180  TRP180      0.0152
    126  NE1       19.9450  -14.1680    2.7760 N.ar  180  TRP180     -0.2442
    127  CE2       21.3060  -14.3150    2.7540 C.ar  180  TRP180      0.0810
    128  CE3       23.2270  -13.1070    1.9260 C.ar  180  TRP180      0.0012
    129  CZ2       22.1090  -15.3320    3.2630 C.ar  180  TRP180      0.0191
    130  CZ3       24.0230  -14.1170    2.4320 C.ar  180  TRP180      0.0001
    131  CH2       23.4620  -15.2180    3.0940 C.ar  180  TRP180      0.0015
    132  N         17.1460   -6.2740    2.1960 N.3   183  TYR183     -0.1228
    133  CA        17.3070   -5.9370    3.6060 C.3   183  TYR183      0.1721
    134  C         17.8600   -4.5240    3.7680 C.2   183  TYR183      0.2437
    135  O         17.2700   -3.6720    4.4330 O.2   183  TYR183     -0.2733
    136  CB        18.2360   -6.9420    4.2890 C.3   183  TYR183      0.0547
    137  CG        18.9040   -6.4000    5.5330 C.ar  183  TYR183     -0.0200
    138  CD1       18.1530   -6.0180    6.6380 C.ar  183  TYR183     -0.0009
    139  CD2       20.2850   -6.2690    5.6030 C.ar  183  TYR183     -0.0009
    140  CE1       18.7580   -5.5220    7.7760 C.ar  183  TYR183      0.0417
    141  CE2       20.8990   -5.7760    6.7370 C.ar  183  TYR183      0.0417
    142  CZ        20.1320   -5.4030    7.8210 C.ar  183  TYR183      0.1957
    143  OH        20.7400   -4.9100    8.9530 O.3   183  TYR183     -0.2866
    144  N         19.0200   -4.2680    3.1460 N.am  184  PRO184     -0.2729
    145  CA        19.6780   -2.9600    3.2050 C.3   184  PRO184      0.1401
    146  C         18.9150   -1.8910    2.4310 C.2   184  PRO184      0.2269
    147  O         19.0470   -0.6980    2.7040 O.2   184  PRO184     -0.2865
    148  CB        21.0410   -3.2190    2.5570 C.3   184  PRO184      0.0296
    149  CG        20.8170   -4.3870    1.6590 C.3   184  PRO184      0.0237
    150  CD        19.7780   -5.2370    2.3360 C.3   184  PRO184      0.0939
    151  N         12.8860   -5.4020    9.6490 N.3   206  TYR206     -0.1241
    152  CA        13.6480   -6.5380   10.1540 C.3   206  TYR206      0.1605
    153  C         12.8400   -7.8280   10.0460 C.2   206  TYR206      0.2264
    154  O         13.3070   -8.8210    9.4900 O.2   206  TYR206     -0.2867
    155  CB        14.0570   -6.2990   11.6080 C.3   206  TYR206      0.0534
    156  CG        15.4430   -5.7150   11.7600 C.ar  206  TYR206     -0.0201
    157  CD1       16.5430   -6.3240   11.1690 C.ar  206  TYR206     -0.0009
    158  CD2       15.6530   -4.5550   12.4950 C.ar  206  TYR206     -0.0009
    159  CE1       17.8120   -5.7950   11.3050 C.ar  206  TYR206      0.0417
    160  CE2       16.9180   -4.0170   12.6350 C.ar  206  TYR206      0.0417
    161  CZ        17.9940   -4.6410   12.0390 C.ar  206  TYR206      0.1957
    162  OH        19.2560   -4.1100   12.1770 O.3   206  TYR206     -0.2866
    163  N         13.6260  -11.1920    7.6210 N.3   210  ASP210     -0.1239
    164  CA        13.7520  -12.5270    8.1950 C.3   210  ASP210      0.1674
    165  C         12.5770  -13.4080    7.7830 C.2   210  ASP210      0.2266
    166  O         12.7210  -14.6210    7.6290 O.2   210  ASP210     -0.2867
    167  CB        13.8330  -12.4440    9.7200 C.3   210  ASP210      0.1410
    168  CG        14.2510  -13.7580   10.3500 C.2   210  ASP210      0.3668
    169  OD1       13.3720  -14.6200   10.5640 O.co2 210  ASP210     -0.2456
    170  OD2       15.4570  -13.9250   10.6280 O.co2 210  ASP210     -0.2456
    171  N         13.1550  -14.3470    4.2340 N.3   213  ASN213     -0.1225
    172  CA        14.3940  -15.1150    4.1990 C.3   213  ASN213      0.1785
    173  C         14.1960  -16.4970    4.8140 C.2   213  ASN213      0.2597
    174  O         15.0400  -17.3460    4.9690 O.2   213  ASN213     -0.2718
    175  CB        15.5030  -14.3670    4.9430 C.3   213  ASN213      0.1169
    176  CG        15.9850  -13.1450    4.1850 C.2   213  ASN213      0.2627
    177  OD1       15.5920  -12.9150    3.0420 O.2   213  ASN213     -0.2716
    178  ND2       16.8430  -12.3560    4.8210 N.am  213  ASN213     -0.0877
    179  N         12.9750  -16.7850    5.2130 N.am  214  LYS214     -0.1980
    180  CA        12.6840  -18.0450    5.8070 C.3   214  LYS214      0.1596
    181  C         11.4600  -18.7090    5.2050 C.2   214  LYS214      0.2287
    182  O         11.4760  -19.8270    4.6900 O.2   214  LYS214     -0.2864
    183  CB        12.4140  -17.9040    7.2980 C.3   214  LYS214      0.0298
    184  CG        13.6500  -17.5090    8.1580 C.3   214  LYS214      0.0038
    185  CD        14.2840  -18.5410    9.0630 C.3   214  LYS214      0.0206
    186  CE        15.1320  -17.9630   10.1980 C.3   214  LYS214      0.1093
    187  NZ        15.7420  -16.6210    9.8560 N.3   214  LYS214     -0.1314
@<TRIPOS>BOND
     1   107   109   ar
     2   107   105   ar
     3   109   108   ar
     4   105   104   ar
     5   105   103   ar
     6   108   106   ar
     7   104   102   ar
     8   103   106   ar
     9   103   101   ar
    10   102   101   ar
    11    99    98    2
    12   101   100    1
    13   110   111    1
    14    98    97    1
    15   112   111    1
    16   112   113    2
    17   111   114    1
    18   114   115    1
    19   114   116    1
    20   100    97    1
    21    97    96    1
    22   115   117    1
    23   118   119    1
    24   120   119    1
    25   120   121    2
    26   122   119    1
    27   122   123    1
    28    95    94    2
    29    94    93    1
    30   149   150    1
    31   149   148    1
    32   123   125   ar
    33   123   124   ar
    34   128   125   ar
    35   128   130   ar
    36   125   127   ar
    37   124   126   ar
    38   132   133    1
    39   150   144    1
    40   146   147    2
    41   146   145    1
    42   130   131   ar
    43   148   145    1
    44   127   126   ar
    45   127   129   ar
    46    93    92    1
    47   177   176    2
    48   131   129   ar
    49   144   145    1
    50   144   134   am
    51    87    86    2
    52   133   134    1
    53   133   136    1
    54    92    86   am
    55    86    85    1
    56   134   135    2
    57    84    85    1
    58   176   178   am
    59   176   175    1
    60   172   171    1
    61   172   173    1
    62   172   175    1
    63   136   137    1
    64    85    88    1
    65    44    43    2
    66    82    81    2
    67   182   181    2
    68   173   174    2
    69   173   179   am
    70    47    46    1
    71    81    80    1
    72   181   180    1
    73   179   180    1
    74    43    42    1
    75   137   139   ar
    76   137   138   ar
    77   139   141   ar
    78   180   183    1
    79    88    89    1
    80    88    90    1
    81    55    53    1
    82    46    45    1
    83    46    48    1
    84    89    91    1
    85    80    79    1
    86    80    83    1
    87   138   140   ar
    88    45    42    1
    89    42    41    1
    90   141   142   ar
    91    37    36    2
    92   183   184    1
    93    53    54    1
    94    53    50    1
    95   163   164    1
    96   166   165    2
    97   140   142   ar
    98   165   164    1
    99   142   143    1
   100    39    38    1
   101   184   185    1
   102   164   167    1
   103    49    50    1
   104    36    35    1
   105    50    51    1
   106    35    38    1
   107    35    34    1
   108    40    38    1
   109   185   186    1
   110    24    26   ar
   111    24    22   ar
   112    30    29    2
   113    77    76    2
   114   154   153    2
   115    21    22   ar
   116    21    19   ar
   117   151   152    1
   118   167   168    1
   119    51    52    2
   120   187   186    1
   121    26    25   ar
   122    22    20   ar
   123    62    60    1
   124   153   152    1
   125    34    29   am
   126   152   155    1
   127    29    28    1
   128   168   169   ar
   129   168   170   ar
   130    76    75    1
   131    61    60    1
   132    19    18   ar
   133    60    57    1
   134   157   159   ar
   135   157   156   ar
   136    25    23   ar
   137   159   161   ar
   138    20    18   ar
   139    20    23   ar
   140    75    74    1
   141    75    78    1
   142    28    31    1
   143    28    27    1
   144   155   156    1
   145    31    32    1
   146    31    33    1
   147   156   158   ar
   148    18    17    1
   149    16    15    2
   150   161   162    1
   151   161   160   ar
   152    57    56    1
   153    57    58    1
   154    67    64    1
   155    67    68    1
   156    63    58   am
   157    63    64    1
   158   158   160   ar
   159    58    59    2
   160    69    68   ar
   161    69    71   ar
   162    12    11    1
   163    15    14    1
   164    64    65    1
   165    68    70   ar
   166    11    10   ar
   167    11     9   ar
   168    10     8   ar
   169    17    14    1
   170     9     7   ar
   171     8     6   ar
   172    14    13    1
   173    71    73   ar
   174     7     6   ar
   175     6     5    1
   176     5     2    1
   177    70    72   ar
   178    73    72   ar
   179    65    66    2
   180     2     3    1
   181     2     1    1
   182     3     4    2
