@<TRIPOS>MOLECULE
tmp/2l74A00.pdb
 149 146 0 0 0
SMALL
GASTEIGER

@<TRIPOS>ATOM
      1  N        110.9040   10.5850    8.5140 N.3     8  ARG8       -0.1231
      2  CA       111.1130    9.6260    9.5990 C.3     8  ARG8        0.1694
      3  C        111.1680    8.1820    9.0900 C.2     8  ARG8        0.2592
      4  O        111.4560    7.2650    9.8610 O.2     8  ARG8       -0.2718
      5  CB       109.9710    9.7320   10.6140 C.3     8  ARG8        0.0321
      6  CG       110.1530   10.9670   11.5120 C.3     8  ARG8        0.0489
      7  CD       109.6900   12.2460   10.7980 C.3     8  ARG8        0.2205
      8  NE       108.5130   11.9960    9.9640 N.pl3   8  ARG8       -0.0865
      9  CZ       107.4880   12.8500    9.9300 C.cat   8  ARG8        0.5346
     10  NH1      107.4780   13.9010   10.7040 N.pl3   8  ARG8        0.1354
     11  NH2      106.4880   12.6330    9.1210 N.pl3   8  ARG8        0.1354
     12  N        110.8990    7.9750    7.8010 N.am    9  ARG9       -0.1966
     13  CA       110.9350    6.6220    7.2370 C.3     9  ARG9        0.1729
     14  C        112.1490    6.4610    6.3340 C.2     9  ARG9        0.2616
     15  O        112.0760    6.7090    5.1320 O.2     9  ARG9       -0.2715
     16  CB       109.6480    6.2990    6.4520 C.3     9  ARG9        0.0348
     17  CG       108.9950    7.5810    5.9360 C.3     9  ARG9        0.0492
     18  CD       107.5910    7.2730    5.4070 C.3     9  ARG9        0.2205
     19  NE       106.8030    8.5030    5.3200 N.pl3   9  ARG9       -0.0865
     20  CZ       106.6110    9.1340    4.1610 C.cat   9  ARG9        0.5346
     21  NH1      107.1350    8.6700    3.0600 N.pl3   9  ARG9        0.1354
     22  NH2      105.8940   10.2250    4.1290 N.pl3   9  ARG9        0.1354
     23  N        113.2610    6.0490    6.9450 N.am   10  ARG10      -0.1977
     24  CA       114.5290    5.8450    6.2320 C.3    10  ARG10       0.1597
     25  C        114.4570    6.3630    4.7970 C.2    10  ARG10       0.2287
     26  O        115.0720    7.3760    4.4660 O.2    10  ARG10      -0.2864
     27  CB       114.9370    4.3540    6.2230 C.3    10  ARG10       0.0334
     28  CG       113.8790    3.4860    6.9180 C.3    10  ARG10       0.0492
     29  CD       112.7400    3.1780    5.9430 C.3    10  ARG10       0.2205
     30  NE       111.6770    2.4520    6.6260 N.pl3  10  ARG10      -0.0865
     31  CZ       111.7880    1.1520    6.8740 C.cat  10  ARG10       0.5346
     32  NH1      112.8570    0.5060    6.4950 N.pl3  10  ARG10       0.1354
     33  NH2      110.8300    0.5220    7.4950 N.pl3  10  ARG10       0.1354
     34  N        108.6360    6.0200   -0.2350 N.3    13  ARG13      -0.1245
     35  CA       107.8570    4.8260   -0.5420 C.3    13  ARG13       0.1563
     36  C        107.2790    4.9260   -1.9490 C.2    13  ARG13       0.2260
     37  O        106.6230    5.9090   -2.2920 O.2    13  ARG13      -0.2867
     38  CB       106.7160    4.6610    0.4690 C.3    13  ARG13       0.0307
     39  CG       107.2030    5.0240    1.8780 C.3    13  ARG13       0.0489
     40  CD       105.9990    5.1940    2.8050 C.3    13  ARG13       0.2205
     41  NE       105.4490    6.5390    2.6750 N.pl3  13  ARG13      -0.0865
     42  CZ       104.4620    6.9570    3.4600 C.cat  13  ARG13       0.5346
     43  NH1      103.9680    6.1590    4.3650 N.pl3  13  ARG13       0.1354
     44  NH2      103.9860    8.1650    3.3240 N.pl3  13  ARG13       0.1354
     45  N        100.0290    4.6060   -1.5670 N.3    35  ASP35      -0.1225
     46  CA       101.4540    4.2990   -1.7290 C.3    35  ASP35       0.1805
     47  C        101.8290    3.0260   -0.9800 C.2    35  ASP35       0.2598
     48  O        101.1020    2.5730   -0.0960 O.2    35  ASP35      -0.2718
     49  CB       102.3300    5.4710   -1.2650 C.3    35  ASP35       0.1424
     50  CG       102.3610    5.5270    0.2590 C.2    35  ASP35       0.3668
     51  OD1      101.4590    6.1170    0.8290 O.co2  35  ASP35      -0.2456
     52  OD2      103.2860    4.9780    0.8330 O.co2  35  ASP35      -0.2456
     53  N        102.9640    2.4430   -1.3620 N.am   36  VAL36      -0.1966
     54  CA       103.4250    1.2050   -0.7420 C.3    36  VAL36       0.1727
     55  C        104.9460    1.1650   -0.6530 C.2    36  VAL36       0.2616
     56  O        105.6410    1.9750   -1.2680 O.2    36  VAL36      -0.2715
     57  CB       102.9190    0.0020   -1.5530 C.3    36  VAL36       0.0290
     58  CG1      103.7670   -0.1620   -2.8170 C.3    36  VAL36       0.0023
     59  CG2      103.0190   -1.2760   -0.7160 C.3    36  VAL36       0.0023
     60  N        105.4510    0.1900    0.0940 N.am   37  SER37      -0.1950
     61  CA       106.8840   -0.0090    0.2540 C.3    37  SER37       0.1924
     62  C        107.1480   -1.5090    0.2820 C.2    37  SER37       0.2314
     63  O        106.2070   -2.2990    0.3640 O.2    37  SER37      -0.2863
     64  CB       107.3730    0.6300    1.5530 C.3    37  SER37       0.2116
     65  OG       108.7870    0.5100    1.6310 O.3    37  SER37      -0.2180
     66  N        107.8530   -3.1430    2.4940 N.3    39  HIS39      -0.1226
     67  CA       107.4820   -3.6490    3.8130 C.3    39  HIS39       0.1752
     68  C        106.5030   -2.7080    4.5190 C.2    39  HIS39       0.2597
     69  O        106.6060   -2.4870    5.7250 O.2    39  HIS39      -0.2718
     70  CB       108.7350   -3.8170    4.6750 C.3    39  HIS39       0.0759
     71  CG       108.3990   -4.6240    5.9000 C.ar   39  HIS39       0.0818
     72  ND1      108.4230   -6.0100    5.9000 N.ar   39  HIS39      -0.2268
     73  CD2      108.0290   -4.2560    7.1700 C.ar   39  HIS39       0.1154
     74  CE1      108.0760   -6.4220    7.1330 C.ar   39  HIS39       0.1986
     75  NE2      107.8250   -5.3930    7.9470 N.ar   39  HIS39      -0.2212
     76  N        105.5500   -2.1610    3.7690 N.am   40  GLY40      -0.1942
     77  CA       104.5660   -1.2530    4.3530 C.3    40  GLY40       0.2014
     78  C        103.5800   -0.7630    3.2980 C.2    40  GLY40       0.2639
     79  O        103.8720   -0.8020    2.1060 O.2    40  GLY40      -0.2714
     80  N        102.4010   -0.3230    3.7400 N.am   41  ILE41      -0.1963
     81  CA       101.3670    0.1470    2.8160 C.3    41  ILE41       0.1727
     82  C        100.5100    1.2490    3.4420 C.2    41  ILE41       0.2616
     83  O        100.2710    1.2670    4.6480 O.2    41  ILE41      -0.2715
     84  CB       100.4770   -1.0400    2.3890 C.3    41  ILE41       0.0290
     85  CG1       98.9890   -0.6580    2.4520 C.3    41  ILE41       0.0022
     86  CG2      100.7290   -2.2300    3.3140 C.3    41  ILE41       0.0023
     87  CD1       98.1520   -1.7670    1.8150 C.3    41  ILE41       0.0001
     88  N        100.0320    2.1500    2.5810 N.am   42  LEU42      -0.1977
     89  CA        99.1710    3.2560    2.9980 C.3    42  LEU42       0.1596
     90  C         97.8550    3.1700    2.2300 C.2    42  LEU42       0.2287
     91  O         97.8520    2.8970    1.0290 O.2    42  LEU42      -0.2864
     92  CB        99.8570    4.5980    2.6920 C.3    42  LEU42       0.0297
     93  CG        99.5950    5.6090    3.8180 C.3    42  LEU42       0.0022
     94  CD1      100.5490    6.8000    3.6780 C.3    42  LEU42       0.0001
     95  CD2       98.1550    6.1160    3.7370 C.3    42  LEU42       0.0001
     96  N         99.4470    0.3680   11.7930 N.3    76  ALA76      -0.1231
     97  CA       100.5870    1.0760   12.3600 C.3    76  ALA76       0.1694
     98  C        100.1550    2.4240   12.9470 C.2    76  ALA76       0.2592
     99  O        100.6150    2.8280   14.0160 O.2    76  ALA76      -0.2718
    100  CB       101.6720    1.2570   11.3010 C.3    76  ALA76       0.0304
    101  N         99.2780    3.1160   12.2190 N.am   77  TRP77      -0.1976
    102  CA        98.7900    4.4320   12.6480 C.3    77  TRP77       0.1640
    103  C         97.6400    4.9000   11.7470 C.2    77  TRP77       0.2290
    104  O         97.4410    4.3680   10.6550 O.2    77  TRP77      -0.2864
    105  CB        99.9350    5.4500   12.5510 C.3    77  TRP77       0.0576
    106  CG       100.3240    5.5380   11.1170 C.ar   77  TRP77       0.0006
    107  CD1      101.3250    4.8400   10.5370 C.ar   77  TRP77       0.0946
    108  CD2       99.7220    6.3450   10.0630 C.ar   77  TRP77       0.0152
    109  NE1      101.3190    5.1000    9.1840 N.ar   77  TRP77      -0.2442
    110  CE2      100.3710    6.0450    8.8480 C.ar   77  TRP77       0.0810
    111  CE3       98.6720    7.2780   10.0400 C.ar   77  TRP77       0.0012
    112  CZ2      100.0010    6.6520    7.6490 C.ar   77  TRP77       0.0191
    113  CZ3       98.2960    7.8970    8.8350 C.ar   77  TRP77       0.0001
    114  CH2       98.9630    7.5870    7.6410 C.ar   77  TRP77       0.0015
    115  N         95.8050    8.7600   10.5310 N.3    79  ARG79      -0.1245
    116  CA        95.7490   10.2140   10.6760 C.3    79  ARG79       0.1563
    117  C         95.1610   10.9150    9.4470 C.2    79  ARG79       0.2260
    118  O         95.5720   10.6580    8.3150 O.2    79  ARG79      -0.2867
    119  CB        97.1560   10.7510   10.9690 C.3    79  ARG79       0.0307
    120  CG        97.0770   12.0580   11.7660 C.3    79  ARG79       0.0489
    121  CD        98.4880   12.5040   12.1730 C.3    79  ARG79       0.2205
    122  NE        98.4720   13.0550   13.5250 N.pl3  79  ARG79      -0.0865
    123  CZ        99.5710   13.0710   14.2750 C.cat  79  ARG79       0.5346
    124  NH1      100.6910   12.5940   13.8010 N.pl3  79  ARG79       0.1354
    125  NH2       99.5300   13.5640   15.4830 N.pl3  79  ARG79       0.1354
    126  N         97.8500    3.9290    7.8940 N.3    84  GLY84      -0.1210
    127  CA        99.1270    3.3040    7.6000 C.3    84  GLY84       0.1956
    128  C         99.0970    1.8510    8.0290 C.2    84  GLY84       0.2612
    129  O         98.3410    1.4720    8.9230 O.2    84  GLY84      -0.2717
    130  N         99.9140    1.0410    7.3850 N.am   85  PHE85      -0.1962
    131  CA        99.9670   -0.3750    7.7050 C.3    85  PHE85       0.1771
    132  C        101.3840   -0.9020    7.5490 C.2    85  PHE85       0.2619
    133  O        102.0650   -0.5890    6.5720 O.2    85  PHE85      -0.2715
    134  CB        99.0420   -1.1470    6.7670 C.3    85  PHE85       0.0574
    135  CG        97.6050   -0.9880    7.2020 C.ar   85  PHE85      -0.0200
    136  CD1       97.1030   -1.7770    8.2410 C.ar   85  PHE85      -0.0042
    137  CD2       96.7740   -0.0620    6.5610 C.ar   85  PHE85      -0.0042
    138  CE1       95.7710   -1.6400    8.6430 C.ar   85  PHE85      -0.0003
    139  CE2       95.4410    0.0740    6.9640 C.ar   85  PHE85      -0.0003
    140  CZ        94.9410   -0.7140    8.0040 C.ar   85  PHE85      -0.0000
    141  N        101.8250   -1.7110    8.5050 N.am   86  GLU86      -0.1977
    142  CA       103.1660   -2.2790    8.4450 C.3    86  GLU86       0.1602
    143  C        103.0720   -3.7430    8.0230 C.2    86  GLU86       0.2287
    144  O        102.2890   -4.5100    8.5820 O.2    86  GLU86      -0.2864
    145  CB       103.8460   -2.1700    9.8140 C.3    86  GLU86       0.0415
    146  CG       103.0020   -2.8890   10.8760 C.3    86  GLU86       0.1163
    147  CD       103.1680   -2.2070   12.2310 C.2    86  GLU86       0.3649
    148  OE1      104.2690   -1.7680   12.5200 O.co2  86  GLU86      -0.2457
    149  OE2      102.1920   -2.1330   12.9580 O.co2  86  GLU86      -0.2457
@<TRIPOS>BOND
     1    58    57    1
     2    37    36    2
     3    36    35    1
     4    46    45    1
     5    46    49    1
     6    46    47    1
     7    57    54    1
     8    57    59    1
     9    53    47   am
    10    53    54    1
    11    56    55    2
    12    49    50    1
    13    47    48    2
    14    54    55    1
    15    55    60   am
    16    35    34    1
    17    35    38    1
    18    60    61    1
    19    61    62    1
    20    61    64    1
    21    50    51   ar
    22    50    52   ar
    23    62    63    2
    24    38    39    1
    25    91    90    2
    26    64    65    1
    27    87    85    1
    28    39    40    1
    29    79    78    2
    30    90    89    1
    31    84    85    1
    32    84    81    1
    33    84    86    1
    34    66    67    1
    35    88    89    1
    36    88    82   am
    37    41    40    1
    38    41    42    2
    39    92    89    1
    40    92    93    1
    41    81    82    1
    42    81    80    1
    43    21    20    1
    44    78    80   am
    45    78    77    1
    46    44    42    1
    47    82    83    2
    48    42    43    1
    49    94    93    1
    50    95    93    1
    51    76    77    1
    52    76    68   am
    53    67    68    1
    54    67    70    1
    55    22    20    1
    56    20    19    2
    57    26    25    2
    58    68    69    2
    59    70    71    1
    60    25    24    1
    61    15    14    2
    62    19    18    1
    63    18    17    1
    64    72    71   ar
    65    72    74   ar
    66    71    73   ar
    67    17    16    1
    68    29    30    1
    69    29    28    1
    70    27    24    1
    71    27    28    1
    72    24    23    1
    73    14    23   am
    74    14    13    1
    75    16    13    1
    76    32    31    1
    77   137   139   ar
    78   137   135   ar
    79   133   132    2
    80    30    31    2
    81   134   135    1
    82   134   131    1
    83    31    33    1
    84   139   140   ar
    85    74    75   ar
    86    73    75   ar
    87   135   136   ar
    88    13    12    1
    89   130   131    1
    90   130   128   am
    91   132   131    1
    92   132   141   am
    93   127   126    1
    94   127   128    1
    95   114   112   ar
    96   114   113   ar
    97   112   110   ar
    98    12     3   am
    99   140   138   ar
   100   143   142    1
   101   143   144    2
   102   128   129    2
   103   136   138   ar
   104   118   117    2
   105   142   141    1
   106   142   145    1
   107     1     2    1
   108   113   111   ar
   109   110   109   ar
   110   110   108   ar
   111     3     2    1
   112     3     4    2
   113    11     9    1
   114   109   107   ar
   115   117   116    1
   116     2     5    1
   117   145   146    1
   118     9     8    2
   119     9    10    1
   120     8     7    1
   121   111   108   ar
   122   108   106   ar
   123   115   116    1
   124   107   106   ar
   125     5     6    1
   126   104   103    2
   127   116   119    1
   128     7     6    1
   129   146   147    1
   130   119   120    1
   131   106   105    1
   132   100    97    1
   133   103   102    1
   134   120   121    1
   135    96    97    1
   136   121   122    1
   137   101   102    1
   138   101    98   am
   139   147   148   ar
   140   147   149   ar
   141    97    98    1
   142   105   102    1
   143    98    99    2
   144   122   123    2
   145   124   123    1
   146   123   125    1
