@<TRIPOS>MOLECULE
tmp/2l74A01.pdb
 119 117 0 0 0
SMALL
GASTEIGER

@<TRIPOS>ATOM
      1  N        110.6610   18.1010    5.1340 N.3     5  HIS5       -0.1226
      2  CA       109.3380   17.5170    5.3610 C.3     5  HIS5        0.1752
      3  C        109.3700   16.5420    6.5370 C.2     5  HIS5        0.2596
      4  O        108.5830   15.5980    6.5990 O.2     5  HIS5       -0.2718
      5  CB       108.8550   16.7980    4.0930 C.3     5  HIS5        0.0759
      6  CG       110.0370   16.3590    3.2730 C.ar    5  HIS5        0.0818
      7  ND1      110.3060   16.8910    2.0220 N.ar    5  HIS5       -0.2268
      8  CD2      111.0280   15.4390    3.5100 C.ar    5  HIS5        0.1154
      9  CE1      111.4180   16.2920    1.5570 C.ar    5  HIS5        0.1986
     10  NE2      111.8980   15.3980    2.4250 N.ar    5  HIS5       -0.2212
     11  N        110.2880   16.7790    7.4690 N.am    6  ASP6       -0.1960
     12  CA       110.4130   15.9160    8.6340 C.3     6  ASP6        0.1840
     13  C        110.3160   14.4490    8.2220 C.2     6  ASP6        0.2622
     14  O        109.2940   13.8020    8.4400 O.2     6  ASP6       -0.2715
     15  CB       109.3070   16.2490    9.6340 C.3     6  ASP6        0.1450
     16  CG       109.6060   17.5800   10.3160 C.2     6  ASP6        0.3671
     17  OD1      110.6360   17.6740   10.9610 O.co2   6  ASP6       -0.2456
     18  OD2      108.8000   18.4870   10.1810 O.co2   6  ASP6       -0.2456
     19  N        111.3800   13.9350    7.6130 N.am    7  GLU7       -0.1963
     20  CA       111.3960   12.5450    7.1620 C.3     7  GLU7        0.1733
     21  C        111.7430   11.6060    8.3160 C.2     7  GLU7        0.2616
     22  O        112.7330   11.8100    9.0190 O.2     7  GLU7       -0.2715
     23  CB       112.3990   12.3960    6.0060 C.3     7  GLU7        0.0429
     24  CG       112.7730   10.9170    5.7740 C.3     7  GLU7        0.1163
     25  CD       114.2800   10.7260    5.9280 C.2     7  GLU7        0.3649
     26  OE1      114.8310   11.2630    6.8750 O.co2   7  GLU7       -0.2457
     27  OE2      114.8590   10.0470    5.0970 O.co2   7  GLU7       -0.2457
     28  N        110.9040   10.5850    8.5140 N.am    8  ARG8       -0.1963
     29  CA       111.1130    9.6260    9.5990 C.3     8  ARG8        0.1729
     30  C        111.1680    8.1820    9.0900 C.2     8  ARG8        0.2616
     31  O        111.4560    7.2650    9.8610 O.2     8  ARG8       -0.2715
     32  CB       109.9710    9.7320   10.6140 C.3     8  ARG8        0.0348
     33  CG       110.1530   10.9670   11.5120 C.3     8  ARG8        0.0492
     34  CD       109.6900   12.2460   10.7980 C.3     8  ARG8        0.2205
     35  NE       108.5130   11.9960    9.9640 N.pl3   8  ARG8       -0.0865
     36  CZ       107.4880   12.8500    9.9300 C.cat   8  ARG8        0.5346
     37  NH1      107.4780   13.9010   10.7040 N.pl3   8  ARG8        0.1354
     38  NH2      106.4880   12.6330    9.1210 N.pl3   8  ARG8        0.1354
     39  N        110.8990    7.9750    7.8010 N.am    9  ARG9       -0.1977
     40  CA       110.9350    6.6220    7.2370 C.3     9  ARG9        0.1597
     41  C        112.1490    6.4610    6.3340 C.2     9  ARG9        0.2287
     42  O        112.0760    6.7090    5.1320 O.2     9  ARG9       -0.2864
     43  CB       109.6480    6.2990    6.4520 C.3     9  ARG9        0.0334
     44  CG       108.9950    7.5810    5.9360 C.3     9  ARG9        0.0492
     45  CD       107.5910    7.2730    5.4070 C.3     9  ARG9        0.2205
     46  NE       106.8030    8.5030    5.3200 N.pl3   9  ARG9       -0.0865
     47  CZ       106.6110    9.1340    4.1610 C.cat   9  ARG9        0.5346
     48  NH1      107.1350    8.6700    3.0600 N.pl3   9  ARG9        0.1354
     49  NH2      105.8940   10.2250    4.1290 N.pl3   9  ARG9        0.1354
     50  N        111.8850    7.0060    1.1070 N.3    12  HIS12      -0.1226
     51  CA       110.5360    7.2530    0.6230 C.3    12  HIS12       0.1752
     52  C        109.8210    5.9340    0.3590 C.2    12  HIS12       0.2595
     53  O        110.3320    4.8630    0.6850 O.2    12  HIS12      -0.2718
     54  CB       110.5880    8.0780   -0.6660 C.3    12  HIS12       0.0759
     55  CG       111.7200    9.0670   -0.5890 C.ar   12  HIS12       0.0818
     56  ND1      111.5280   10.3820   -0.1950 N.ar   12  HIS12      -0.2268
     57  CD2      113.0620    8.9520   -0.8620 C.ar   12  HIS12       0.1154
     58  CE1      112.7230   11.0000   -0.2420 C.ar   12  HIS12       0.1986
     59  NE2      113.6920   10.1730   -0.6420 N.ar   12  HIS12      -0.2212
     60  N        108.6360    6.0200   -0.2350 N.am   13  ARG13      -0.1980
     61  CA       107.8570    4.8260   -0.5420 C.3    13  ARG13       0.1597
     62  C        107.2790    4.9260   -1.9490 C.2    13  ARG13       0.2287
     63  O        106.6230    5.9090   -2.2920 O.2    13  ARG13      -0.2864
     64  CB       106.7160    4.6610    0.4690 C.3    13  ARG13       0.0334
     65  CG       107.2030    5.0240    1.8780 C.3    13  ARG13       0.0492
     66  CD       105.9990    5.1940    2.8050 C.3    13  ARG13       0.2205
     67  NE       105.4490    6.5390    2.6750 N.pl3  13  ARG13      -0.0865
     68  CZ       104.4620    6.9570    3.4600 C.cat  13  ARG13       0.5346
     69  NH1      103.9680    6.1590    4.3650 N.pl3  13  ARG13       0.1354
     70  NH2      103.9860    8.1650    3.3240 N.pl3  13  ARG13       0.1354
     71  N        100.0320    2.1500    2.5810 N.3    42  LEU42      -0.1245
     72  CA        99.1710    3.2560    2.9980 C.3    42  LEU42       0.1561
     73  C         97.8550    3.1700    2.2300 C.2    42  LEU42       0.2260
     74  O         97.8520    2.8970    1.0290 O.2    42  LEU42      -0.2867
     75  CB        99.8570    4.5980    2.6920 C.3    42  LEU42       0.0270
     76  CG        99.5950    5.6090    3.8180 C.3    42  LEU42       0.0019
     77  CD1      100.5490    6.8000    3.6780 C.3    42  LEU42       0.0001
     78  CD2       98.1550    6.1160    3.7370 C.3    42  LEU42       0.0001
     79  N         99.2780    3.1160   12.2190 N.3    77  TRP77      -0.1241
     80  CA        98.7900    4.4320   12.6480 C.3    77  TRP77       0.1605
     81  C         97.6400    4.9000   11.7470 C.2    77  TRP77       0.2264
     82  O         97.4410    4.3680   10.6550 O.2    77  TRP77      -0.2867
     83  CB        99.9350    5.4500   12.5510 C.3    77  TRP77       0.0550
     84  CG       100.3240    5.5380   11.1170 C.ar   77  TRP77       0.0003
     85  CD1      101.3250    4.8400   10.5370 C.ar   77  TRP77       0.0946
     86  CD2       99.7220    6.3450   10.0630 C.ar   77  TRP77       0.0152
     87  NE1      101.3190    5.1000    9.1840 N.ar   77  TRP77      -0.2442
     88  CE2      100.3710    6.0450    8.8480 C.ar   77  TRP77       0.0810
     89  CE3       98.6720    7.2780   10.0400 C.ar   77  TRP77       0.0012
     90  CZ2      100.0010    6.6520    7.6490 C.ar   77  TRP77       0.0191
     91  CZ3       98.2960    7.8970    8.8350 C.ar   77  TRP77       0.0001
     92  CH2       98.9630    7.5870    7.6410 C.ar   77  TRP77       0.0015
     93  N         95.8050    8.7600   10.5310 N.3    79  ARG79      -0.1231
     94  CA        95.7490   10.2140   10.6760 C.3    79  ARG79       0.1694
     95  C         95.1610   10.9150    9.4470 C.2    79  ARG79       0.2592
     96  O         95.5720   10.6580    8.3150 O.2    79  ARG79      -0.2718
     97  CB        97.1560   10.7510   10.9690 C.3    79  ARG79       0.0321
     98  CG        97.0770   12.0580   11.7660 C.3    79  ARG79       0.0489
     99  CD        98.4880   12.5040   12.1730 C.3    79  ARG79       0.2205
    100  NE        98.4720   13.0550   13.5250 N.pl3  79  ARG79      -0.0865
    101  CZ        99.5710   13.0710   14.2750 C.cat  79  ARG79       0.5346
    102  NH1      100.6910   12.5940   13.8010 N.pl3  79  ARG79       0.1354
    103  NH2       99.5300   13.5640   15.4830 N.pl3  79  ARG79       0.1354
    104  N         94.2400   11.8480    9.6920 N.am   80  ASP80      -0.1974
    105  CA        93.6450   12.6440    8.6200 C.3    80  ASP80       0.1709
    106  C         92.9750   11.8070    7.5320 C.2    80  ASP80       0.2293
    107  O         93.1560   12.0810    6.3460 O.2    80  ASP80      -0.2864
    108  CB        94.7210   13.5290    7.9830 C.3    80  ASP80       0.1436
    109  CG        94.0800   14.7660    7.3590 C.2    80  ASP80       0.3671
    110  OD1       93.6810   14.6860    6.2090 O.co2  80  ASP80      -0.2456
    111  OD2       93.9970   15.7740    8.0420 O.co2  80  ASP80      -0.2456
    112  N         93.6010    9.0600    6.3240 N.3    82  LEU82      -0.1245
    113  CA        94.4580    8.0240    5.7580 C.3    82  LEU82       0.1561
    114  C         94.8560    7.0190    6.8330 C.2    82  LEU82       0.2260
    115  O         94.7890    7.3130    8.0260 O.2    82  LEU82      -0.2867
    116  CB        95.7100    8.6590    5.1480 C.3    82  LEU82       0.0270
    117  CG        95.3440    9.9940    4.4940 C.3    82  LEU82       0.0019
    118  CD1       96.5550   10.5330    3.7300 C.3    82  LEU82       0.0001
    119  CD2       94.1820    9.7850    3.5170 C.3    82  LEU82       0.0001
@<TRIPOS>BOND
     1    63    62    2
     2    62    61    1
     3    57    59   ar
     4    57    55   ar
     5    54    55    1
     6    54    51    1
     7    59    58   ar
     8    55    56   ar
     9    61    60    1
    10    61    64    1
    11    58    56   ar
    12    60    52   am
    13    52    51    1
    14    52    53    2
    15    64    65    1
    16    51    50    1
    17    74    73    2
    18     9     7   ar
    19     9    10   ar
    20    65    66    1
    21     7     6   ar
    22    73    72    1
    23    10     8   ar
    24    71    72    1
    25    67    66    1
    26    67    68    2
    27    75    72    1
    28    75    76    1
    29    48    47    1
    30     6     8   ar
    31     6     5    1
    32    70    68    1
    33    68    69    1
    34   119   117    1
    35    77    76    1
    36   118   117    1
    37    78    76    1
    38     5     2    1
    39    49    47    1
    40    47    46    2
    41   117   116    1
    42    27    25   ar
    43    42    41    2
    44     1     2    1
    45   116   113    1
    46    46    45    1
    47     2     3    1
    48    45    44    1
    49   113   112    1
    50   113   114    1
    51    24    25    1
    52    24    23    1
    53    25    26   ar
    54    44    43    1
    55    23    20    1
    56   110   109   ar
    57    41    40    1
    58   107   106    2
    59    43    40    1
    60     3     4    2
    61     3    11   am
    62   114   115    2
    63    20    19    1
    64    20    21    1
    65    40    39    1
    66   109   108    1
    67   109   111   ar
    68    11    12    1
    69   106   105    1
    70    19    13   am
    71    92    90   ar
    72    92    91   ar
    73    90    88   ar
    74    39    30   am
    75   108   105    1
    76    13    14    2
    77    13    12    1
    78    96    95    2
    79    21    28   am
    80    21    22    2
    81    28    29    1
    82   105   104    1
    83    12    15    1
    84    91    89   ar
    85    88    87   ar
    86    88    86   ar
    87    30    29    1
    88    30    31    2
    89    38    36    1
    90    87    85   ar
    91    95   104   am
    92    95    94    1
    93    29    32    1
    94    15    16    1
    95    36    35    2
    96    36    37    1
    97    35    34    1
    98    89    86   ar
    99    86    84   ar
   100    18    16   ar
   101    16    17   ar
   102    93    94    1
   103    85    84   ar
   104    32    33    1
   105    82    81    2
   106    94    97    1
   107    34    33    1
   108    97    98    1
   109    84    83    1
   110    81    80    1
   111    98    99    1
   112    99   100    1
   113    79    80    1
   114    83    80    1
   115   100   101    2
   116   102   101    1
   117   101   103    1
