@<TRIPOS>MOLECULE
tmp/2l75A00.pdb
 167 168 0 0 0
SMALL
GASTEIGER

@<TRIPOS>ATOM
      1  N        -11.8850    6.3600   11.0110 N.3     1  ASP1       -0.1225
      2  CA       -11.3370    5.9850    9.7140 C.3     1  ASP1        0.1805
      3  C        -11.4640    4.4810    9.4920 C.2     1  ASP1        0.2598
      4  O        -11.5990    3.7190   10.4470 O.2     1  ASP1       -0.2718
      5  CB        -9.8720    6.4210    9.6190 C.3     1  ASP1        0.1424
      6  CG        -9.1850    5.8640    8.3950 C.2     1  ASP1        0.3668
      7  OD1       -9.5360    6.2710    7.2740 O.co2   1  ASP1       -0.2456
      8  OD2       -8.2990    5.0020    8.5480 O.co2   1  ASP1       -0.2456
      9  N        -11.4240    4.0490    8.2340 N.am    2  HIS2       -0.1961
     10  CA       -11.6030    2.6380    7.9190 C.3     2  HIS2        0.1787
     11  C        -10.4610    2.0970    7.0480 C.2     2  HIS2        0.2620
     12  O        -10.6910    1.5000    5.9970 O.2     2  HIS2       -0.2715
     13  CB       -12.9600    2.4170    7.2350 C.3     2  HIS2        0.0785
     14  CG       -13.3200    0.9700    7.0630 C.ar    2  HIS2        0.0821
     15  ND1      -13.3380    0.3370    5.8390 N.ar    2  HIS2       -0.2267
     16  CD2      -13.6590    0.0300    7.9730 C.ar    2  HIS2        0.1154
     17  CE1      -13.6670   -0.9270    6.0030 C.ar    2  HIS2        0.1986
     18  NE2      -13.8660   -1.1400    7.2900 N.ar    2  HIS2       -0.2212
     19  N         -9.2270    2.3210    7.4810 N.am    3  HIS3       -0.1959
     20  CA        -8.0810    1.6380    6.8910 C.3     3  HIS3        0.1787
     21  C         -6.8870    1.7250    7.8360 C.2     3  HIS3        0.2620
     22  O         -6.9390    2.4770    8.8100 O.2     3  HIS3       -0.2715
     23  CB        -7.7560    2.1540    5.4660 C.3     3  HIS3        0.0785
     24  CG        -7.1090    3.5040    5.3530 C.ar    3  HIS3        0.0821
     25  ND1       -7.4780    4.6060    6.0930 N.ar    3  HIS3       -0.2267
     26  CD2       -6.1160    3.9270    4.5370 C.ar    3  HIS3        0.1154
     27  CE1       -6.7440    5.6400    5.7390 C.ar    3  HIS3        0.1986
     28  NE2       -5.9070    5.2560    4.7960 N.ar    3  HIS3       -0.2212
     29  N         -5.8350    0.9500    7.5700 N.am    4  MET4       -0.1963
     30  CA        -4.6930    0.8510    8.4890 C.3     4  MET4        0.1736
     31  C         -4.1360    2.2240    8.8510 C.2     4  MET4        0.2616
     32  O         -4.3020    3.2010    8.1170 O.2     4  MET4       -0.2715
     33  CB        -3.5730   -0.0090    7.8980 C.3     4  MET4        0.0427
     34  CG        -3.9910   -1.4240    7.5370 C.3     4  MET4        0.0599
     35  SD        -2.7520   -2.6580    7.9940 S.3     4  MET4       -0.1393
     36  CE        -1.2740   -1.9670    7.2570 C.3     4  MET4        0.0692
     37  N         -3.4750    2.2940    9.9920 N.am    5  GLU5       -0.1963
     38  CA        -2.9410    3.5520   10.4930 C.3     5  GLU5        0.1733
     39  C         -1.4340    3.6270   10.2560 C.2     5  GLU5        0.2616
     40  O         -0.7110    4.2980   10.9940 O.2     5  GLU5       -0.2715
     41  CB        -3.2600    3.6960   11.9830 C.3     5  GLU5        0.0429
     42  CG        -2.6540    2.6000   12.8480 C.3     5  GLU5        0.1163
     43  CD        -3.2790    2.5310   14.2260 C.2     5  GLU5        0.3649
     44  OE1       -3.5320    3.5940   14.8260 O.co2   5  GLU5       -0.2457
     45  OE2       -3.5420    1.4110   14.7070 O.co2   5  GLU5       -0.2457
     46  N         -0.9710    2.9020    9.2440 N.am    6  PHE6       -0.1974
     47  CA         0.4150    2.9600    8.8020 C.3     6  PHE6        0.1639
     48  C          0.5950    2.1760    7.5040 C.2     6  PHE6        0.2290
     49  O         -0.1540    1.2420    7.2120 O.2     6  PHE6       -0.2864
     50  CB         1.3840    2.4510    9.8810 C.3     6  PHE6        0.0560
     51  CG         0.9870    1.1780   10.5710 C.ar    6  PHE6       -0.0200
     52  CD1        0.2130    1.2040   11.7170 C.ar    6  PHE6       -0.0042
     53  CD2        1.4230   -0.0410   10.0960 C.ar    6  PHE6       -0.0042
     54  CE1       -0.1280    0.0360   12.3690 C.ar    6  PHE6       -0.0003
     55  CE2        1.0930   -1.2090   10.7440 C.ar    6  PHE6       -0.0003
     56  CZ         0.3150   -1.1740   11.8810 C.ar    6  PHE6       -0.0000
     57  N          5.9780    0.0030    5.2740 N.3    10  CYS10      -0.1221
     58  CA         6.9230    0.5580    6.2480 C.3    10  CYS10       0.1808
     59  C          6.5000    0.3540    7.7030 C.2    10  CYS10       0.2601
     60  O          7.3350    0.3810    8.6020 O.2    10  CYS10      -0.2717
     61  CB         7.0990    2.0540    6.0160 C.3    10  CYS10       0.0970
     62  SG         7.6560    2.4900    4.3640 S.3    10  CYS10      -0.0800
     63  N          5.2020    0.1590    7.9130 N.am   11  LYS11      -0.1965
     64  CA         4.5820    0.2190    9.2370 C.3    11  LYS11       0.1728
     65  C          4.6770    1.6440    9.7910 C.2    11  LYS11       0.2616
     66  O          4.5010    1.8910   10.9790 O.2    11  LYS11      -0.2715
     67  CB         5.2070   -0.8090   10.1810 C.3    11  LYS11       0.0311
     68  CG         5.1630   -2.2180    9.6160 C.3    11  LYS11       0.0038
     69  CD         3.7520   -2.7790    9.6050 C.3    11  LYS11       0.0206
     70  CE         3.7000   -4.1700    8.9900 C.3    11  LYS11       0.1093
     71  NZ         4.4270   -5.1790    9.8090 N.3    11  LYS11      -0.1314
     72  N          4.9160    2.5670    8.8710 N.am   12  ASP12      -0.1957
     73  CA         5.0580    3.9950    9.1470 C.3    12  ASP12       0.1840
     74  C          3.7320    4.6970    8.8570 C.2    12  ASP12       0.2623
     75  O          3.1180    4.4310    7.8250 O.2    12  ASP12      -0.2715
     76  CB         6.1620    4.5410    8.2380 C.3    12  ASP12       0.1450
     77  CG         6.3180    6.0440    8.2870 C.2    12  ASP12       0.3671
     78  OD1        5.4830    6.7530    7.6910 O.co2  12  ASP12      -0.2456
     79  OD2        7.2980    6.5170    8.8920 O.co2  12  ASP12      -0.2456
     80  N          3.3020    5.6180    9.7170 N.am   13  GLY13      -0.1940
     81  CA         1.9520    6.1180    9.6210 C.3    13  GLY13       0.2014
     82  C          1.9250    7.4850    9.0100 C.2    13  GLY13       0.2639
     83  O          1.3080    8.4060    9.5410 O.2    13  GLY13      -0.2714
     84  N          2.6280    7.6270    7.9090 N.am   14  GLY14      -0.1939
     85  CA         2.6860    8.9000    7.2390 C.3    14  GLY14       0.2014
     86  C          1.4280    9.1860    6.4710 C.2    14  GLY14       0.2639
     87  O          0.3300    8.8100    6.8850 O.2    14  GLY14      -0.2714
     88  N          1.5860    9.8720    5.3690 N.am   15  GLU15      -0.1963
     89  CA         0.4840   10.0890    4.4590 C.3    15  GLU15       0.1733
     90  C          0.2120    8.8060    3.6810 C.2    15  GLU15       0.2616
     91  O          0.9790    8.4130    2.8000 O.2    15  GLU15      -0.2715
     92  CB         0.7800   11.2550    3.5260 C.3    15  GLU15       0.0429
     93  CG        -0.4610   11.7990    2.8440 C.3    15  GLU15       0.1163
     94  CD        -0.2190   13.1170    2.1420 C.2    15  GLU15       0.3649
     95  OE1        0.9550   13.5030    1.9810 O.co2  15  GLU15      -0.2457
     96  OE2       -1.2080   13.7820    1.7680 O.co2  15  GLU15      -0.2457
     97  N         -0.8800    8.1510    4.0380 N.am   16  LEU16      -0.1963
     98  CA        -1.1830    6.8270    3.5270 C.3    16  LEU16       0.1728
     99  C         -2.3230    6.8660    2.5420 C.2    16  LEU16       0.2616
    100  O         -3.4280    7.3110    2.8640 O.2    16  LEU16      -0.2715
    101  CB        -1.5560    5.8960    4.6650 C.3    16  LEU16       0.0311
    102  CG        -0.7200    6.0800    5.9190 C.3    16  LEU16       0.0022
    103  CD1       -1.4070    5.4450    7.1140 C.3    16  LEU16       0.0001
    104  CD2        0.6690    5.5010    5.6970 C.3    16  LEU16       0.0001
    105  N         -2.0520    6.3430    1.3710 N.am   17  LEU17      -0.1963
    106  CA        -2.9850    6.3270    0.2840 C.3    17  LEU17       0.1728
    107  C         -4.1160    5.3730    0.6140 C.2    17  LEU17       0.2616
    108  O         -3.9230    4.1570    0.6760 O.2    17  LEU17      -0.2715
    109  CB        -2.2360    5.8930   -0.9720 C.3    17  LEU17       0.0311
    110  CG        -2.8380    6.3260   -2.3000 C.3    17  LEU17       0.0022
    111  CD1       -3.6660    7.5810   -2.1390 C.3    17  LEU17       0.0001
    112  CD2       -1.7230    6.5570   -3.3020 C.3    17  LEU17       0.0001
    113  N         -5.2820    5.9340    0.8690 N.am   18  CYS18      -0.1968
    114  CA        -6.4230    5.1410    1.2670 C.3    18  CYS18       0.1712
    115  C         -7.0180    4.4570    0.0540 C.2    18  CYS18       0.2296
    116  O         -7.7530    5.0780   -0.7160 O.2    18  CYS18      -0.2864
    117  CB        -7.4710    6.0120    1.9570 C.3    18  CYS18       0.0983
    118  SG        -8.8190    5.0820    2.7230 S.3    18  CYS18      -0.0798
    119  N         -9.2270    2.8930   -2.4140 N.3    20  ASP20      -0.1239
    120  CA       -10.6490    3.1900   -2.5670 C.3    20  ASP20       0.1674
    121  C        -11.5220    1.9500   -2.3610 C.2    20  ASP20       0.2266
    122  O        -12.6860    2.0630   -1.9860 O.2    20  ASP20      -0.2867
    123  CB       -10.9140    3.8090   -3.9490 C.3    20  ASP20       0.1410
    124  CG       -12.3550    4.2460   -4.1320 C.2    20  ASP20       0.3668
    125  OD1      -12.6880    5.3770   -3.7210 O.co2  20  ASP20      -0.2456
    126  OD2      -13.1570    3.4690   -4.6930 O.co2  20  ASP20      -0.2456
    127  N         -0.4260   12.4420   -3.8000 N.3    38  ILE38      -0.1231
    128  CA        -1.5910   11.5790   -3.7670 C.3    38  ILE38       0.1678
    129  C         -2.4200   11.7110   -5.0530 C.2    38  ILE38       0.2434
    130  O         -2.7060   12.8220   -5.5040 O.2    38  ILE38      -0.2733
    131  CB        -2.4390   11.9400   -2.5310 C.3    38  ILE38       0.0265
    132  CG1       -1.5210   12.2030   -1.3230 C.3    38  ILE38       0.0019
    133  CG2       -3.4430   10.8500   -2.2270 C.3    38  ILE38       0.0020
    134  CD1       -0.4520   11.1510   -1.0960 C.3    38  ILE38       0.0001
    135  N         -2.7960   10.5640   -5.6610 N.am   39  PRO39      -0.2718
    136  CA        -3.4690   10.5220   -6.9680 C.3    39  PRO39       0.1535
    137  C         -4.8510   11.1680   -6.9880 C.2    39  PRO39       0.2599
    138  O         -5.5320   11.2740   -5.9650 O.2    39  PRO39      -0.2715
    139  CB        -3.5960    9.0250   -7.2780 C.3    39  PRO39       0.0310
    140  CG        -2.6900    8.3310   -6.3270 C.3    39  PRO39       0.0237
    141  CD        -2.5890    9.2150   -5.1200 C.3    39  PRO39       0.0939
    142  N         -5.2550   11.5830   -8.1770 N.am   40  ASN40      -0.1959
    143  CA        -6.5770   12.1430   -8.3990 C.3    40  ASN40       0.1819
    144  C         -7.4920   11.0600   -8.9600 C.2    40  ASN40       0.2621
    145  O         -7.2070   10.4860  -10.0130 O.2    40  ASN40      -0.2715
    146  CB        -6.4890   13.3220   -9.3780 C.3    40  ASN40       0.1195
    147  CG        -7.8030   14.0690   -9.5510 C.2    40  ASN40       0.2630
    148  OD1       -8.8900   13.5100   -9.3980 O.2    40  ASN40      -0.2716
    149  ND2       -7.7080   15.3460   -9.8890 N.am   40  ASN40      -0.0877
    150  N         -8.5770   10.7780   -8.2590 N.am   41  GLY41      -0.1954
    151  CA        -9.5010    9.7580   -8.7110 C.3    41  GLY41       0.1869
    152  C         -9.4350    8.4920   -7.8790 C.2    41  GLY41       0.2309
    153  O         -9.0380    8.5200   -6.7150 O.2    41  GLY41      -0.2863
    154  N         -7.9000    5.4220   -6.6810 N.3    43  TRP43      -0.1241
    155  CA        -6.6280    4.7400   -6.5480 C.3    43  TRP43       0.1605
    156  C         -6.8200    3.4010   -5.8630 C.2    43  TRP43       0.2264
    157  O         -7.5140    3.3000   -4.8460 O.2    43  TRP43      -0.2867
    158  CB        -5.6190    5.5810   -5.7740 C.3    43  TRP43       0.0550
    159  CG        -4.3080    4.8940   -5.5800 C.ar   43  TRP43       0.0003
    160  CD1       -3.2440    4.9170   -6.4300 C.ar   43  TRP43       0.0946
    161  CD2       -3.9250    4.0750   -4.4710 C.ar   43  TRP43       0.0152
    162  NE1       -2.2210    4.1580   -5.9220 N.ar   43  TRP43      -0.2442
    163  CE2       -2.6180    3.6230   -4.7190 C.ar   43  TRP43       0.0810
    164  CE3       -4.5640    3.6750   -3.2950 C.ar   43  TRP43       0.0012
    165  CZ2       -1.9400    2.7930   -3.8280 C.ar   43  TRP43       0.0191
    166  CZ3       -3.8870    2.8560   -2.4160 C.ar   43  TRP43       0.0001
    167  CH2       -2.5880    2.4210   -2.6870 C.ar   43  TRP43       0.0015
@<TRIPOS>BOND
     1   145   144    2
     2   149   147   am
     3   147   148    2
     4   147   146    1
     5   146   143    1
     6   144   143    1
     7   144   150   am
     8   151   150    1
     9   151   152    1
    10   143   142    1
    11   142   137   am
    12   152   153    2
    13   139   136    1
    14   139   140    1
    15   137   136    1
    16   137   138    2
    17   136   135    1
    18   154   155    1
    19   155   156    1
    20   155   158    1
    21   160   162   ar
    22   160   159   ar
    23   140   141    1
    24   162   163   ar
    25   156   157    2
    26   158   159    1
    27   135   141    1
    28   135   129   am
    29   159   161   ar
    30   130   129    2
    31   129   128    1
    32   163   161   ar
    33   163   165   ar
    34   126   124   ar
    35   161   164   ar
    36   124   123    1
    37   124   125   ar
    38   123   120    1
    39   165   167   ar
    40   127   128    1
    41   128   131    1
    42   112   110    1
    43   164   166   ar
    44   167   166   ar
    45   120   119    1
    46   120   121    1
    47   131   133    1
    48   131   132    1
    49   121   122    2
    50   110   111    1
    51   110   109    1
    52   132   134    1
    53   109   106    1
    54   116   115    2
    55   115   114    1
    56   106   107    1
    57   106   105    1
    58   107   108    2
    59   107   113   am
    60   113   114    1
    61   114   117    1
    62   105    99   am
    63    96    94   ar
    64   117   118    1
    65    95    94   ar
    66    94    93    1
    67    99   100    2
    68    99    98    1
    69    91    90    2
    70    93    92    1
    71    92    89    1
    72    98    97    1
    73    98   101    1
    74    90    97   am
    75    90    89    1
    76    62    61    1
    77    89    88    1
    78    26    28   ar
    79    26    24   ar
    80   101   102    1
    81    28    27   ar
    82    57    58    1
    83    24    23    1
    84    24    25   ar
    85    88    86   am
    86    23    20    1
    87   104   102    1
    88    27    25   ar
    89    15    17   ar
    90    15    14   ar
    91   102   103    1
    92    12    11    2
    93    17    18   ar
    94    61    58    1
    95    58    59    1
    96    86    87    2
    97    86    85    1
    98    20    19    1
    99    20    21    1
   100    11    19   am
   101    11    10    1
   102    14    13    1
   103    14    16   ar
   104    49    48    2
   105    13    10    1
   106    85    84    1
   107    36    35    1
   108     7     6   ar
   109    18    16   ar
   110    48    47    1
   111    34    33    1
   112    34    35    1
   113    29    21   am
   114    29    30    1
   115    78    77   ar
   116    59    63   am
   117    59    60    2
   118    75    74    2
   119    21    22    2
   120    33    30    1
   121    84    82   am
   122    63    64    1
   123    10     9    1
   124    32    31    2
   125     9     3   am
   126    76    77    1
   127    76    73    1
   128    77    79   ar
   129     6     8   ar
   130     6     5    1
   131    30    31    1
   132    47    46    1
   133    47    50    1
   134    31    37   am
   135    74    73    1
   136    74    80   am
   137    72    73    1
   138    72    65   am
   139    70    69    1
   140    70    71    1
   141    82    83    2
   142    82    81    1
   143    64    65    1
   144    64    67    1
   145    46    39   am
   146     3     2    1
   147     3     4    2
   148    69    68    1
   149    68    67    1
   150     5     2    1
   151    81    80    1
   152     2     1    1
   153    65    66    2
   154    50    51    1
   155    37    38    1
   156    53    51   ar
   157    53    55   ar
   158    39    38    1
   159    39    40    2
   160    38    41    1
   161    51    52   ar
   162    55    56   ar
   163    52    54   ar
   164    56    54   ar
   165    41    42    1
   166    42    43    1
   167    43    45   ar
   168    43    44   ar
