@<TRIPOS>MOLECULE
tmp/2l7uA00.pdb
 118 110 0 0 0
SMALL
GASTEIGER

@<TRIPOS>ATOM
      1  N         10.8990   -3.0910    4.6670 N.3     3  ALA3       -0.1245
      2  CA        10.3680   -4.4350    4.4780 C.3     3  ALA3        0.1562
      3  C          9.6690   -4.9320    5.7380 C.2     3  ALA3        0.2260
      4  O         10.1520   -5.8440    6.4080 O.2     3  ALA3       -0.2867
      5  CB        11.4830   -5.3920    4.0780 C.3     3  ALA3        0.0290
      6  N          3.6440    2.7160   -5.4870 N.3    32  LYS32      -0.1231
      7  CA         3.4200    1.5460   -6.3280 C.3    32  LYS32       0.1693
      8  C          3.2050    0.2980   -5.4780 C.2    32  LYS32       0.2592
      9  O          3.8850    0.0960   -4.4700 O.2    32  LYS32      -0.2718
     10  CB         4.6060    1.3360   -7.2710 C.3    32  LYS32       0.0285
     11  CG         4.2930    0.4310   -8.4500 C.3    32  LYS32       0.0035
     12  CD         5.0470    0.8600   -9.6980 C.3    32  LYS32       0.0206
     13  CE         4.5560    2.2060  -10.2110 C.3    32  LYS32       0.1093
     14  NZ         4.5400    2.2590  -11.6990 N.3    32  LYS32      -0.1314
     15  N          2.2580   -0.5370   -5.8890 N.am   33  LEU33      -0.1966
     16  CA         1.9540   -1.7670   -5.1660 C.3    33  LEU33       0.1728
     17  C          1.7450   -2.9290   -6.1320 C.2    33  LEU33       0.2616
     18  O          1.1140   -2.7750   -7.1770 O.2    33  LEU33      -0.2715
     19  CB         0.7090   -1.5790   -4.2990 C.3    33  LEU33       0.0311
     20  CG        -0.0330   -2.8560   -3.9030 C.3    33  LEU33       0.0022
     21  CD1       -0.7410   -2.6700   -2.5700 C.3    33  LEU33       0.0001
     22  CD2       -1.0260   -3.2530   -4.9860 C.3    33  LEU33       0.0001
     23  N          2.2770   -4.0940   -5.7720 N.am   34  ASN34      -0.1972
     24  CA         2.1480   -5.2820   -6.6070 C.3    34  ASN34       0.1688
     25  C          1.3250   -6.3550   -5.9010 C.2    34  ASN34       0.2292
     26  O          1.6950   -6.8320   -4.8270 O.2    34  ASN34      -0.2864
     27  CB         3.5290   -5.8360   -6.9630 C.3    34  ASN34       0.1181
     28  CG         4.0850   -5.2260   -8.2360 C.2    34  ASN34       0.2629
     29  OD1        4.5550   -5.9380   -9.1230 O.2    34  ASN34      -0.2716
     30  ND2        4.0330   -3.9020   -8.3290 N.am   34  ASN34      -0.0877
     31  N          2.5190   -6.7190   -2.2370 N.3    76  ILE76      -0.1245
     32  CA         3.5220   -5.9230   -1.5390 C.3    76  ILE76       0.1561
     33  C          3.2890   -4.4330   -1.7600 C.2    76  ILE76       0.2260
     34  O          3.0260   -3.9920   -2.8800 O.2    76  ILE76      -0.2867
     35  CB         4.9470   -6.2830   -1.9980 C.3    76  ILE76       0.0252
     36  CG1        5.0920   -7.7990   -2.1440 C.3    76  ILE76       0.0019
     37  CG2        5.9730   -5.7390   -1.0160 C.3    76  ILE76       0.0019
     38  CD1        4.7530   -8.3080   -3.5280 C.3    76  ILE76       0.0001
     39  N          4.7150   -0.6540   -1.8230 N.3    78  ARG78      -0.1231
     40  CA         5.9500    0.1040   -1.9790 C.3    78  ARG78       0.1694
     41  C          5.6550    1.5820   -2.2120 C.2    78  ARG78       0.2592
     42  O          4.8830    1.9380   -3.1030 O.2    78  ARG78      -0.2718
     43  CB         6.7720   -0.4540   -3.1420 C.3    78  ARG78       0.0321
     44  CG         8.2210   -0.7430   -2.7820 C.3    78  ARG78       0.0489
     45  CD         9.1750    0.1570   -3.5500 C.3    78  ARG78       0.2205
     46  NE         9.9110   -0.5740   -4.5770 N.pl3  78  ARG78      -0.0865
     47  CZ        10.4630    0.0040   -5.6390 C.cat  78  ARG78       0.5346
     48  NH1       10.3630    1.3140   -5.8110 N.pl3  78  ARG78       0.1354
     49  NH2       11.1170   -0.7300   -6.5290 N.pl3  78  ARG78       0.1354
     50  N          6.2730    2.4380   -1.4070 N.am   79  CYS79      -0.1956
     51  CA         6.0780    3.8790   -1.5240 C.3    79  CYS79       0.1843
     52  C          7.4040    4.5900   -1.7790 C.2    79  CYS79       0.2625
     53  O          8.4580    4.1340   -1.3340 O.2    79  CYS79      -0.2714
     54  CB         5.4250    4.4310   -0.2550 C.3    79  CYS79       0.0997
     55  SG         6.3820    5.7490    0.5580 S.3    79  CYS79      -0.0797
     56  N          7.3420    5.7050   -2.4960 N.am   80  GLN80      -0.1977
     57  CA         8.5380    6.4780   -2.8090 C.3    80  GLN80       0.1601
     58  C          8.2460    7.9750   -2.7700 C.2    80  GLN80       0.2287
     59  O          7.3240    8.4550   -3.4310 O.2    80  GLN80      -0.2864
     60  CB         9.0760    6.0890   -4.1880 C.3    80  GLN80       0.0394
     61  CG        10.3210    6.8600   -4.5950 C.3    80  GLN80       0.0908
     62  CD        11.5670    6.3780   -3.8790 C.2    80  GLN80       0.2608
     63  OE1       11.6290    6.3770   -2.6500 O.2    80  GLN80      -0.2717
     64  NE2       12.5680    5.9630   -4.6470 N.am   80  GLN80      -0.0878
     65  N         15.5710   10.9360   -1.4540 N.3    88  GLU88      -0.1245
     66  CA        14.2590   10.3070   -1.5600 C.3    88  GLU88       0.1567
     67  C         14.0730    9.2500   -0.4760 C.2    88  GLU88       0.2260
     68  O         15.0210    8.5620   -0.0940 O.2    88  GLU88      -0.2867
     69  CB        14.0810    9.6760   -2.9410 C.3    88  GLU88       0.0388
     70  CG        14.6600    8.2750   -3.0490 C.3    88  GLU88       0.1160
     71  CD        14.8440    7.8290   -4.4860 C.2    88  GLU88       0.3649
     72  OE1       14.0820    8.3000   -5.3560 O.co2  88  GLU88      -0.2457
     73  OE2       15.7500    7.0070   -4.7410 O.co2  88  GLU88      -0.2457
     74  N         12.3710    5.7470    0.7830 N.3    90  LYS90      -0.1231
     75  CA        11.8030    4.4980    0.2930 C.3    90  LYS90       0.1693
     76  C         11.0510    3.7700    1.4010 C.2    90  LYS90       0.2593
     77  O         11.4440    3.8190    2.5670 O.2    90  LYS90      -0.2718
     78  CB        12.9060    3.5980   -0.2680 C.3    90  LYS90       0.0285
     79  CG        13.8400    3.0470    0.7950 C.3    90  LYS90       0.0035
     80  CD        13.9280    1.5320    0.7300 C.3    90  LYS90       0.0206
     81  CE        12.5870    0.8820    1.0350 C.3    90  LYS90       0.1093
     82  NZ        12.2370    0.9830    2.4790 N.3    90  LYS90      -0.1314
     83  N          9.9700    3.0920    1.0300 N.am   91  SER91      -0.1938
     84  CA         9.1620    2.3540    1.9940 C.3    91  SER91       0.2055
     85  C          8.6160    1.0690    1.3770 C.2    91  SER91       0.2643
     86  O          7.9060    1.1030    0.3740 O.2    91  SER91      -0.2714
     87  CB         8.0060    3.2230    2.4950 C.3    91  SER91       0.2130
     88  OG         8.4780    4.4690    2.9810 O.3    91  SER91      -0.2179
     89  N          8.9560   -0.0610    1.9860 N.am   92  ASN92      -0.1971
     90  CA         8.5010   -1.3590    1.4970 C.3    92  ASN92       0.1688
     91  C          7.8200   -2.1510    2.6080 C.2    92  ASN92       0.2292
     92  O          8.4350   -2.4630    3.6290 O.2    92  ASN92      -0.2864
     93  CB         9.6790   -2.1560    0.9350 C.3    92  ASN92       0.1181
     94  CG         9.3770   -3.6390    0.8300 C.2    92  ASN92       0.2629
     95  OD1       10.0590   -4.4660    1.4350 O.2    92  ASN92      -0.2716
     96  ND2        8.3510   -3.9800    0.0620 N.am   92  ASN92      -0.0877
     97  N          5.3710   -5.6060    3.1380 N.3    94  ARG94      -0.1245
     98  CA         4.7340   -6.7970    2.5870 C.3    94  ARG94       0.1563
     99  C          3.4610   -7.1370    3.3560 C.2    94  ARG94       0.2260
    100  O          3.4470   -7.1410    4.5870 O.2    94  ARG94      -0.2867
    101  CB         5.7000   -7.9830    2.6300 C.3    94  ARG94       0.0307
    102  CG         6.3200   -8.2150    3.9980 C.3    94  ARG94       0.0489
    103  CD         7.8380   -8.2700    3.9200 C.3    94  ARG94       0.2205
    104  NE         8.4200   -8.9790    5.0570 N.pl3  94  ARG94      -0.0865
    105  CZ         8.4620  -10.3030    5.1520 C.cat  94  ARG94       0.5346
    106  NH1        7.9620  -11.0580    4.1840 N.pl3  94  ARG94       0.1354
    107  NH2        9.0090  -10.8750    6.2180 N.pl3  94  ARG94       0.1354
    108  N          0.1250   -9.9130    3.7640 N.3    96  ARG96      -0.1245
    109  CA        -0.3510  -11.2630    3.4910 C.3    96  ARG96       0.1563
    110  C         -1.7570  -11.4680    4.0460 C.2    96  ARG96       0.2260
    111  O         -2.0180  -11.2000    5.2190 O.2    96  ARG96      -0.2867
    112  CB         0.6030  -12.2940    4.0980 C.3    96  ARG96       0.0307
    113  CG         1.3920  -13.0790    3.0610 C.3    96  ARG96       0.0489
    114  CD         2.3900  -12.1920    2.3340 C.3    96  ARG96       0.2205
    115  NE         3.7070  -12.8160    2.2360 N.pl3  96  ARG96      -0.0865
    116  CZ         4.5460  -12.9270    3.2600 C.cat  96  ARG96       0.5346
    117  NH1        4.2070  -12.4560    4.4530 N.pl3  96  ARG96       0.1354
    118  NH2        5.7270  -13.5090    3.0930 N.pl3  96  ARG96       0.1354
@<TRIPOS>BOND
     1    14    13    1
     2    13    12    1
     3    12    11    1
     4    29    28    2
     5    11    10    1
     6    30    28   am
     7    28    27    1
     8    10     7    1
     9    18    17    2
    10    27    24    1
    11    24    25    1
    12    24    23    1
    13    49    47    1
    14     7     6    1
    15     7     8    1
    16    17    23   am
    17    17    16    1
    18    25    26    2
    19    15     8   am
    20    15    16    1
    21    48    47    1
    22    47    46    2
    23     8     9    2
    24    72    71   ar
    25    16    19    1
    26    22    20    1
    27    73    71   ar
    28    64    62   am
    29    61    60    1
    30    61    62    1
    31    46    45    1
    32    71    70    1
    33    19    20    1
    34    60    57    1
    35    20    21    1
    36    62    63    2
    37    45    44    1
    38    38    36    1
    39    59    58    2
    40    43    44    1
    41    43    40    1
    42    42    41    2
    43    70    69    1
    44    69    66    1
    45    34    33    2
    46    57    58    1
    47    57    56    1
    48    56    52   am
    49    31    32    1
    50    41    40    1
    51    41    50   am
    52    36    35    1
    53    35    32    1
    54    35    37    1
    55    40    39    1
    56    52    51    1
    57    52    53    2
    58    33    32    1
    59    66    65    1
    60    66    67    1
    61    51    50    1
    62    51    54    1
    63    67    68    2
    64    78    75    1
    65    78    79    1
    66    54    55    1
    67    96    94   am
    68    75    74    1
    69    75    76    1
    70    86    85    2
    71    80    79    1
    72    80    81    1
    73    94    93    1
    74    94    95    2
    75    93    90    1
    76    83    76   am
    77    83    84    1
    78    81    82    1
    79    85    89   am
    80    85    84    1
    81    76    77    2
    82    90    89    1
    83    90    91    1
    84    84    87    1
    85   115   114    1
    86   115   116    2
    87   114   113    1
    88    87    88    1
    89    98   101    1
    90    98    97    1
    91    98    99    1
    92    91    92    2
    93   101   102    1
    94   113   112    1
    95   118   116    1
    96   116   117    1
    97    99   100    2
    98   109   108    1
    99   109   110    1
   100   109   112    1
   101   103   102    1
   102   103   104    1
   103   110   111    2
   104     5     2    1
   105   106   105    1
   106     2     1    1
   107     2     3    1
   108   104   105    2
   109   105   107    1
   110     3     4    2
