@<TRIPOS>MOLECULE
tmp/2l84A00.pdb
 130 127 0 0 0
SMALL
GASTEIGER

@<TRIPOS>ATOM
      1  N          8.0090   -7.3570    9.2880 N.3    30  PRO30      -0.2116
      2  CA         8.8210   -6.2720    8.7480 C.3    30  PRO30       0.1372
      3  C          8.6060   -6.0890    7.2500 C.2    30  PRO30       0.2244
      4  O          8.8920   -5.0290    6.7140 O.2    30  PRO30      -0.2868
      5  CB        10.2700   -6.6780    9.0610 C.3    30  PRO30       0.0268
      6  CG        10.1880   -8.0470    9.6550 C.3    30  PRO30       0.0207
      7  CD         8.8020   -8.1740   10.2200 C.3    30  PRO30       0.0892
      8  N          7.0140   -3.1260    7.3250 N.3    33  LEU33      -0.1231
      9  CA         7.8260   -2.0320    7.8740 C.3    33  LEU33       0.1678
     10  C          8.2350   -0.9480    6.8650 C.2    33  LEU33       0.2434
     11  O          7.9210    0.2240    7.0720 O.2    33  LEU33      -0.2733
     12  CB         9.0620   -2.5890    8.5570 C.3    33  LEU33       0.0284
     13  CG         8.8960   -2.8740   10.0440 C.3    33  LEU33       0.0019
     14  CD1       10.1890   -3.4240   10.5800 C.3    33  LEU33       0.0001
     15  CD2        8.4980   -1.6090   10.7880 C.3    33  LEU33       0.0001
     16  N          8.9500   -1.2940    5.7740 N.am   34  PRO34      -0.2729
     17  CA         9.3960   -0.3000    4.7900 C.3    34  PRO34       0.1401
     18  C          8.2650    0.4640    4.1220 C.2    34  PRO34       0.2269
     19  O          8.5070    1.3910    3.3490 O.2    34  PRO34      -0.2865
     20  CB        10.1630   -1.1220    3.7490 C.3    34  PRO34       0.0296
     21  CG        10.5000   -2.3990    4.4330 C.3    34  PRO34       0.0237
     22  CD         9.3920   -2.6490    5.4110 C.3    34  PRO34       0.0939
     23  N          5.8410    2.7200    7.1130 N.3    37  GLN37      -0.1231
     24  CA         6.6520    3.8380    7.5560 C.3    37  GLN37       0.1683
     25  C          7.3450    4.4740    6.3540 C.2    37  GLN37       0.2434
     26  O          7.7140    3.7740    5.4110 O.2    37  GLN37      -0.2733
     27  CB         7.7160    3.3560    8.5340 C.3    37  GLN37       0.0380
     28  CG         7.1730    2.6000    9.7340 C.3    37  GLN37       0.0905
     29  CD         8.2390    1.7610   10.4120 C.2    37  GLN37       0.2608
     30  OE1        8.2070    1.5560   11.6260 O.2    37  GLN37      -0.2717
     31  NE2        9.1930    1.2680    9.6260 N.am   37  GLN37      -0.0878
     32  N          7.5400    5.8000    6.3630 N.am   38  PRO38      -0.2718
     33  CA         8.2090    6.4950    5.2620 C.3    38  PRO38       0.1535
     34  C          9.6590    6.0660    5.1470 C.2    38  PRO38       0.2598
     35  O         10.4300    6.1990    6.0970 O.2    38  PRO38      -0.2715
     36  CB         8.1200    7.9790    5.6470 C.3    38  PRO38       0.0310
     37  CG         7.0990    8.0500    6.7340 C.3    38  PRO38       0.0237
     38  CD         7.1430    6.7230    7.4350 C.3    38  PRO38       0.0939
     39  N         10.0130    5.5420    3.9790 N.am   39  VAL39      -0.1978
     40  CA        11.3730    5.0840    3.7100 C.3    39  VAL39       0.1596
     41  C         12.3920    5.9760    4.3860 C.2    39  VAL39       0.2287
     42  O         13.3790    5.4990    4.9400 O.2    39  VAL39      -0.2864
     43  CB        11.6630    5.0640    2.1840 C.3    39  VAL39       0.0276
     44  CG1       10.6900    5.9520    1.4530 C.3    39  VAL39       0.0022
     45  CG2       13.1010    5.4900    1.8560 C.3    39  VAL39       0.0022
     46  N         17.2020    8.2030    6.4750 N.3    43  LEU43      -0.1231
     47  CA        17.2890    7.1970    7.5210 C.3    43  LEU43       0.1693
     48  C         17.9230    5.9020    7.0130 C.2    43  LEU43       0.2591
     49  O         18.7700    5.3110    7.6840 O.2    43  LEU43      -0.2718
     50  CB        15.8760    6.9290    8.0370 C.3    43  LEU43       0.0284
     51  CG        15.7840    6.2130    9.3760 C.3    43  LEU43       0.0019
     52  CD1       14.5590    6.6830   10.1270 C.3    43  LEU43       0.0001
     53  CD2       15.7390    4.7210    9.1570 C.3    43  LEU43       0.0001
     54  N         17.5090    5.4650    5.8270 N.am   44  LEU44      -0.1980
     55  CA        18.0300    4.2300    5.2380 C.3    44  LEU44       0.1596
     56  C         19.3250    4.4500    4.4650 C.2    44  LEU44       0.2287
     57  O         20.0420    3.4890    4.1680 O.2    44  LEU44      -0.2864
     58  CB        16.9920    3.6170    4.3140 C.3    44  LEU44       0.0297
     59  CG        15.5930    3.5810    4.8860 C.3    44  LEU44       0.0022
     60  CD1       14.6170    3.0760    3.8450 C.3    44  LEU44       0.0001
     61  CD2       15.5580    2.7230    6.1290 C.3    44  LEU44       0.0001
     62  N         19.4110    6.6090    1.5030 N.3    46  ILE46      -0.1245
     63  CA        19.0700    6.7570    0.0880 C.3    46  ILE46       0.1561
     64  C         18.9490    8.2170   -0.3110 C.2    46  ILE46       0.2260
     65  O         18.0090    8.8910    0.0750 O.2    46  ILE46      -0.2867
     66  CB        17.7410    6.0720   -0.2530 C.3    46  ILE46       0.0252
     67  CG1       17.4240    5.0090    0.7950 C.3    46  ILE46       0.0019
     68  CG2       17.8090    5.4840   -1.6390 C.3    46  ILE46       0.0019
     69  CD1       16.1330    4.2830    0.5420 C.3    46  ILE46       0.0001
     70  N         16.4230    7.9590   -3.8230 N.3    49  TYR49      -0.1241
     71  CA        15.2650    7.0660   -3.8690 C.3    49  TYR49       0.1605
     72  C         14.1780    7.6820   -4.7380 C.2    49  TYR49       0.2264
     73  O         13.5360    6.9960   -5.5330 O.2    49  TYR49      -0.2867
     74  CB        14.7050    6.7870   -2.4690 C.3    49  TYR49       0.0534
     75  CG        13.6380    5.7070   -2.4580 C.ar   49  TYR49      -0.0201
     76  CD1       12.3480    5.9720   -2.8930 C.ar   49  TYR49      -0.0009
     77  CD2       13.9230    4.4210   -2.0190 C.ar   49  TYR49      -0.0009
     78  CE1       11.3750    4.9880   -2.8890 C.ar   49  TYR49       0.0417
     79  CE2       12.9570    3.4340   -2.0120 C.ar   49  TYR49       0.0417
     80  CZ        11.6850    3.7230   -2.4480 C.ar   49  TYR49       0.1957
     81  OH        10.7200    2.7420   -2.4440 O.3    49  TYR49      -0.2866
     82  N         12.8030    0.0570   -7.4760 N.3    91  TYR91      -0.1227
     83  CA        13.9390    0.5790   -6.7560 C.3    91  TYR91       0.1736
     84  C         14.9330   -0.5390   -6.4650 C.2    91  TYR91       0.2595
     85  O         16.0900   -0.4810   -6.8810 O.2    91  TYR91      -0.2718
     86  CB        13.5190    1.2300   -5.4390 C.3    91  TYR91       0.0548
     87  CG        14.7110    1.7020   -4.6820 C.ar   91  TYR91      -0.0200
     88  CD1       15.4170    0.8450   -3.8570 C.ar   91  TYR91      -0.0009
     89  CD2       15.1380    3.0020   -4.8090 C.ar   91  TYR91      -0.0009
     90  CE1       16.5240    1.2740   -3.1750 C.ar   91  TYR91       0.0417
     91  CE2       16.2500    3.4460   -4.1280 C.ar   91  TYR91       0.0417
     92  CZ        16.9410    2.5720   -3.3090 C.ar   91  TYR91       0.1957
     93  OH        18.0520    2.9890   -2.6280 O.3    91  TYR91      -0.2866
     94  N         14.4720   -1.5550   -5.7350 N.am   92  ASN92      -0.1974
     95  CA        15.3230   -2.6820   -5.3770 C.3    92  ASN92       0.1688
     96  C         15.3820   -3.7100   -6.4980 C.2    92  ASN92       0.2292
     97  O         15.8610   -4.8270   -6.3000 O.2    92  ASN92      -0.2864
     98  CB        14.8190   -3.3370   -4.0910 C.3    92  ASN92       0.1181
     99  CG        15.1000   -2.4920   -2.8630 C.2    92  ASN92       0.2629
    100  OD1       14.2790   -1.6700   -2.4590 O.2    92  ASN92      -0.2716
    101  ND2       16.2680   -2.6910   -2.2640 N.am   92  ASN92      -0.0877
    102  N         15.5760   -7.4860   -0.6050 N.3    97  ARG97      -0.1231
    103  CA        14.7970   -7.7800    0.5940 C.3    97  ARG97       0.1694
    104  C         13.3770   -7.2320    0.4910 C.2    97  ARG97       0.2591
    105  O         12.4130   -7.9890    0.5900 O.2    97  ARG97      -0.2718
    106  CB        15.5140   -7.2070    1.8190 C.3    97  ARG97       0.0321
    107  CG        14.6070   -6.4670    2.7830 C.3    97  ARG97       0.0489
    108  CD        15.2490   -6.3360    4.1370 C.3    97  ARG97       0.2205
    109  NE        16.4700   -5.5360    4.1030 N.pl3  97  ARG97      -0.0865
    110  CZ        16.9620   -4.9010    5.1630 C.cat  97  ARG97       0.5346
    111  NH1       16.3370   -4.9730    6.3310 N.pl3  97  ARG97       0.1354
    112  NH2       18.0780   -4.1940    5.0570 N.pl3  97  ARG97       0.1354
    113  N         13.2420   -5.9220    0.2990 N.am   98  VAL98      -0.1980
    114  CA        11.9180   -5.3260    0.1980 C.3    98  VAL98       0.1595
    115  C         11.1820   -5.8720   -1.0210 C.2    98  VAL98       0.2287
    116  O          9.9770   -5.6870   -1.1520 O.2    98  VAL98      -0.2864
    117  CB        11.9550   -3.7820    0.1740 C.3    98  VAL98       0.0276
    118  CG1       13.0750   -3.2530    1.0660 C.3    98  VAL98       0.0022
    119  CG2       12.0840   -3.2540   -1.2470 C.3    98  VAL98       0.0022
    120  N          9.5190   -8.4580    0.6160 N.3   101  PHE101     -0.1241
    121  CA         8.5830   -7.8140    1.5100 C.3   101  PHE101      0.1605
    122  C          7.3460   -7.3900    0.7340 C.2   101  PHE101      0.2264
    123  O          6.2090   -7.5710    1.1720 O.2   101  PHE101     -0.2867
    124  CB         9.2460   -6.5760    2.1310 C.3   101  PHE101      0.0534
    125  CG        10.3410   -6.8940    3.1130 C.ar  101  PHE101     -0.0203
    126  CD1       10.8850   -8.1580    3.1740 C.ar  101  PHE101     -0.0042
    127  CD2       10.8100   -5.9280    3.9900 C.ar  101  PHE101     -0.0042
    128  CE1       11.8620   -8.4620    4.0690 C.ar  101  PHE101     -0.0003
    129  CE2       11.8030   -6.2310    4.9010 C.ar  101  PHE101     -0.0003
    130  CZ        12.3290   -7.5070    4.9380 C.ar  101  PHE101     -0.0000
@<TRIPOS>BOND
     1    82    83    1
     2    85    84    2
     3    83    84    1
     4    83    86    1
     5    96    97    2
     6    96    95    1
     7    84    94   am
     8    94    95    1
     9    73    72    2
    10    86    87    1
    11    95    98    1
    12    89    87   ar
    13    89    91   ar
    14    72    71    1
    15    87    88   ar
    16    91    92   ar
    17    98    99    1
    18    71    70    1
    19    71    74    1
    20    88    90   ar
    21    92    90   ar
    22    92    93    1
    23    76    78   ar
    24    76    75   ar
    25    78    80   ar
    26    99   100    2
    27    99   101   am
    28    74    75    1
    29    75    77   ar
    30    80    81    1
    31    80    79   ar
    32    77    79   ar
    33    68    66    1
    34   119   117    1
    35   116   115    2
    36   115   114    1
    37   102   103    1
    38    64    65    2
    39    64    63    1
    40    66    63    1
    41    66    67    1
    42    63    62    1
    43   117   114    1
    44   117   118    1
    45   114   113    1
    46   113   104   am
    47   104   105    2
    48   104   103    1
    49    69    67    1
    50   103   106    1
    51   120   121    1
    52   122   123    2
    53   122   121    1
    54    44    43    1
    55   121   124    1
    56   106   107    1
    57    45    43    1
    58   124   125    1
    59    43    40    1
    60   107   108    1
    61   125   126   ar
    62   125   127   ar
    63   126   128   ar
    64    19    18    2
    65    40    39    1
    66    40    41    1
    67    20    21    1
    68    20    17    1
    69    60    59    1
    70    39    34   am
    71   127   129   ar
    72   128   130   ar
    73   109   108    1
    74   109   110    2
    75    18    17    1
    76    57    56    2
    77    58    59    1
    78    58    55    1
    79    41    42    2
    80    21    22    1
    81    56    55    1
    82    17    16    1
    83    59    61    1
    84   129   130   ar
    85   112   110    1
    86    34    33    1
    87    34    35    2
    88   110   111    1
    89    55    54    1
    90    33    36    1
    91    33    32    1
    92    22    16    1
    93    26    25    2
    94    36    37    1
    95    16    10   am
    96    54    48   am
    97    25    32   am
    98    25    24    1
    99    32    38    1
   100    46    47    1
   101     4     3    2
   102    37    38    1
   103    10    11    2
   104    10     9    1
   105    48    47    1
   106    48    49    2
   107    23    24    1
   108     3     2    1
   109     8     9    1
   110    47    50    1
   111    24    27    1
   112     9    12    1
   113    50    51    1
   114    27    28    1
   115    12    13    1
   116     2     5    1
   117     2     1    1
   118     5     6    1
   119    53    51    1
   120     1     7    1
   121    51    52    1
   122    31    29   am
   123     6     7    1
   124    28    29    1
   125    13    14    1
   126    13    15    1
   127    29    30    2
