@<TRIPOS>MOLECULE
tmp/2l85A00.pdb
 121 116 0 0 0
SMALL
GASTEIGER

@<TRIPOS>ATOM
      1  N          8.1680    6.5990   -8.9620 N.3    30  PRO30      -0.2116
      2  CA         9.2280    6.1500   -8.0790 C.3    30  PRO30       0.1372
      3  C          8.7510    6.0230   -6.6390 C.2    30  PRO30       0.2244
      4  O          8.9210    4.9860   -6.0220 O.2    30  PRO30      -0.2868
      5  CB        10.3160    7.2230   -8.1930 C.3    30  PRO30       0.0268
      6  CG         9.9180    8.0760   -9.3460 C.3    30  PRO30       0.0207
      7  CD         8.4260    7.9790   -9.4260 C.3    30  PRO30       0.0892
      8  N          7.2490    3.0200   -6.4290 N.3    33  LEU33      -0.1231
      9  CA         8.1730    2.0300   -6.9790 C.3    33  LEU33       0.1678
     10  C          8.7690    1.0110   -5.9750 C.2    33  LEU33       0.2434
     11  O          8.8180   -0.1750   -6.3020 O.2    33  LEU33      -0.2733
     12  CB         9.2850    2.7950   -7.6880 C.3    33  LEU33       0.0284
     13  CG         9.6700    2.3760   -9.0960 C.3    33  LEU33       0.0019
     14  CD1       11.0770    1.8570   -9.0730 C.3    33  LEU33       0.0001
     15  CD2        8.7230    1.3500   -9.6670 C.3    33  LEU33       0.0001
     16  N          9.2530    1.4020   -4.7620 N.am   34  PRO34      -0.2729
     17  CA         9.8170    0.4200   -3.8310 C.3    34  PRO34       0.1401
     18  C          8.7260   -0.4460   -3.2320 C.2    34  PRO34       0.2269
     19  O          8.9690   -1.2570   -2.3380 O.2    34  PRO34      -0.2865
     20  CB        10.5070    1.2470   -2.7360 C.3    34  PRO34       0.0296
     21  CG        10.1890    2.6860   -3.0020 C.3    34  PRO34       0.0237
     22  CD         9.2620    2.7610   -4.1960 C.3    34  PRO34       0.0939
     23  N          6.2710   -2.9810   -7.2680 N.3    37  GLN37      -0.1245
     24  CA         6.9030   -4.2520   -7.5620 C.3    37  GLN37       0.1566
     25  C          7.7640   -4.6590   -6.3730 C.2    37  GLN37       0.2260
     26  O          8.2570   -3.7930   -5.6490 O.2    37  GLN37      -0.2867
     27  CB         7.7560   -4.1580   -8.8410 C.3    37  GLN37       0.0367
     28  CG         9.2070   -3.7340   -8.6140 C.3    37  GLN37       0.0905
     29  CD         9.5390   -2.3780   -9.2130 C.2    37  GLN37       0.2608
     30  OE1        8.9150   -1.9420  -10.1810 O.2    37  GLN37      -0.2717
     31  NE2       10.5380   -1.7080   -8.6400 N.am   37  GLN37      -0.0878
     32  N         10.3150   -5.0860   -3.7070 N.3    39  VAL39      -0.1245
     33  CA        11.5080   -4.2780   -3.4790 C.3    39  VAL39       0.1561
     34  C         12.6770   -4.8120   -4.2960 C.2    39  VAL39       0.2260
     35  O         13.4020   -4.0530   -4.9250 O.2    39  VAL39      -0.2867
     36  CB        11.8600   -4.2240   -1.9780 C.3    39  VAL39       0.0252
     37  CG1       10.6470   -3.7700   -1.1930 C.3    39  VAL39       0.0019
     38  CG2       12.3540   -5.5700   -1.4650 C.3    39  VAL39       0.0019
     39  N         17.9580   -3.8840   -5.4100 N.3    44  LEU44      -0.1245
     40  CA        18.3080   -2.7750   -4.5190 C.3    44  LEU44       0.1561
     41  C         19.5490   -3.0860   -3.6890 C.2    44  LEU44       0.2260
     42  O         19.9690   -2.2760   -2.8610 O.2    44  LEU44      -0.2867
     43  CB        17.1410   -2.4230   -3.5890 C.3    44  LEU44       0.0270
     44  CG        15.7560   -2.7760   -4.1250 C.3    44  LEU44       0.0019
     45  CD1       14.6650   -2.3500   -3.1430 C.3    44  LEU44       0.0001
     46  CD2       15.5300   -2.1440   -5.4950 C.3    44  LEU44       0.0001
     47  N         19.8360   -5.5440   -1.5150 N.3    46  ILE46      -0.1245
     48  CA        19.4070   -5.9000   -0.1820 C.3    46  ILE46       0.1561
     49  C         19.5480   -7.3950    0.0750 C.2    46  ILE46       0.2260
     50  O         19.0580   -8.2110   -0.6950 O.2    46  ILE46      -0.2867
     51  CB        17.9580   -5.4960    0.0740 C.3    46  ILE46       0.0252
     52  CG1       17.5330   -4.3630   -0.8660 C.3    46  ILE46       0.0019
     53  CG2       17.8450   -5.0780    1.5070 C.3    46  ILE46       0.0019
     54  CD1       16.3420   -3.5580   -0.3990 C.3    46  ILE46       0.0001
     55  N         16.3240   -8.3480    3.3190 N.3    49  TYR49      -0.1241
     56  CA        15.1090   -7.5560    3.2640 C.3    49  TYR49       0.1605
     57  C         13.9510   -8.2820    3.9390 C.2    49  TYR49       0.2264
     58  O         13.2130   -7.6940    4.7260 O.2    49  TYR49      -0.2867
     59  CB        14.7470   -7.2300    1.8400 C.3    49  TYR49       0.0534
     60  CG        13.9650   -5.9620    1.7840 C.ar   49  TYR49      -0.0201
     61  CD1       14.5840   -4.7570    1.7640 C.ar   49  TYR49      -0.0009
     62  CD2       12.6150   -5.9800    1.7810 C.ar   49  TYR49      -0.0009
     63  CE1       13.8780   -3.5910    1.7320 C.ar   49  TYR49       0.0417
     64  CE2       11.8790   -4.8210    1.7520 C.ar   49  TYR49       0.0417
     65  CZ        12.5190   -3.6200    1.7260 C.ar   49  TYR49       0.1957
     66  OH        11.7990   -2.4480    1.6950 O.3    49  TYR49      -0.2866
     67  N         12.3660   -0.2850    7.4760 N.3    91  TYR91      -0.1227
     68  CA        13.7000   -0.4540    6.9530 C.3    91  TYR91       0.1736
     69  C         14.3930    0.8810    6.7230 C.2    91  TYR91       0.2595
     70  O         15.4660    1.1250    7.2800 O.2    91  TYR91      -0.2718
     71  CB        13.6540   -1.2540    5.6630 C.3    91  TYR91       0.0548
     72  CG        14.9870   -1.8030    5.2520 C.ar   91  TYR91      -0.0200
     73  CD1       16.2040   -1.1870    5.5560 C.ar   91  TYR91      -0.0009
     74  CD2       15.0130   -2.9570    4.5500 C.ar   91  TYR91      -0.0009
     75  CE1       17.3980   -1.7410    5.1490 C.ar   91  TYR91       0.0417
     76  CE2       16.1730   -3.5140    4.1420 C.ar   91  TYR91       0.0417
     77  CZ        17.3790   -2.9130    4.4360 C.ar   91  TYR91       0.1957
     78  OH        18.5590   -3.4840    4.0210 O.3    91  TYR91      -0.2866
     79  N         13.7960    1.7510    5.9120 N.am   92  ASN92      -0.1974
     80  CA        14.4000    3.0520    5.6390 C.3    92  ASN92       0.1688
     81  C         14.5290    3.8850    6.9140 C.2    92  ASN92       0.2292
     82  O         14.8060    5.0810    6.8520 O.2    92  ASN92      -0.2864
     83  CB        13.5920    3.8060    4.5870 C.3    92  ASN92       0.1181
     84  CG        13.9430    3.3810    3.1740 C.2    92  ASN92       0.2629
     85  OD1       13.8850    4.1840    2.2450 O.2    92  ASN92      -0.2716
     86  ND2       14.3160    2.1170    3.0010 N.am   92  ASN92      -0.0877
     87  N         15.8460    7.6010    4.8500 N.3    96  SER96      -0.1202
     88  CA        16.3640    7.0020    3.6370 C.3    96  SER96       0.2020
     89  C         15.5810    7.4920    2.4220 C.2    96  SER96       0.2619
     90  O         14.7800    8.4190    2.5390 O.2    96  SER96      -0.2717
     91  CB        16.3450    5.4810    3.7160 C.3    96  SER96       0.2103
     92  OG        17.2180    5.0110    4.7270 O.3    96  SER96      -0.2182
     93  N         15.8010    6.8830    1.2540 N.am   97  ARG97      -0.1965
     94  CA        15.0890    7.3190    0.0570 C.3    97  ARG97       0.1729
     95  C         13.6520    6.8140    0.0130 C.2    97  ARG97       0.2616
     96  O         12.7270    7.6190    0.0130 O.2    97  ARG97      -0.2715
     97  CB        15.8210    6.9600   -1.2310 C.3    97  ARG97       0.0348
     98  CG        15.9200    5.4850   -1.5070 C.3    97  ARG97       0.0492
     99  CD        15.7410    5.1860   -2.9810 C.3    97  ARG97       0.2205
    100  NE        16.6500    5.9540   -3.8280 N.pl3  97  ARG97      -0.0865
    101  CZ        16.5490    6.0070   -5.1540 C.cat  97  ARG97       0.5346
    102  NH1       15.5830    5.3400   -5.7760 N.pl3  97  ARG97       0.1354
    103  NH2       17.4130    6.7250   -5.8590 N.pl3  97  ARG97       0.1354
    104  N         13.4510    5.4950   -0.0170 N.am   98  VAL98      -0.1977
    105  CA        12.1020    4.9490   -0.0850 C.3    98  VAL98       0.1596
    106  C         11.2420    5.4330    1.0750 C.2    98  VAL98       0.2287
    107  O         10.0200    5.2790    1.0510 O.2    98  VAL98      -0.2864
    108  CB        12.0650    3.4030   -0.2340 C.3    98  VAL98       0.0276
    109  CG1       13.4070    2.8600   -0.6970 C.3    98  VAL98       0.0022
    110  CG2       11.5910    2.7030    1.0300 C.3    98  VAL98       0.0022
    111  N          9.6750    8.1300   -0.4470 N.3   101  PHE101     -0.1241
    112  CA         8.8220    7.5740   -1.4830 C.3   101  PHE101      0.1605
    113  C          7.4740    7.2410   -0.8800 C.2   101  PHE101      0.2264
    114  O          6.4370    7.5970   -1.4200 O.2   101  PHE101     -0.2867
    115  CB         9.4340    6.2730   -2.0430 C.3   101  PHE101      0.0534
    116  CG        10.6400    6.4440   -2.9070 C.ar  101  PHE101     -0.0203
    117  CD1       11.6440    7.2430   -2.4910 C.ar  101  PHE101     -0.0042
    118  CD2       10.7700    5.7880   -4.1120 C.ar  101  PHE101     -0.0042
    119  CE1       12.7730    7.4160   -3.2290 C.ar  101  PHE101     -0.0003
    120  CE2       11.9050    5.9490   -4.8830 C.ar  101  PHE101     -0.0003
    121  CZ        12.9150    6.7720   -4.4350 C.ar  101  PHE101     -0.0000
@<TRIPOS>BOND
     1    30    29    2
     2    15    13    1
     3     7     6    1
     4     7     1    1
     5     6     5    1
     6    29    31   am
     7    29    28    1
     8    13    14    1
     9    13    12    1
    10     1     2    1
    11    27    28    1
    12    27    24    1
    13     5     2    1
    14     2     3    1
    15    12     9    1
    16    24    23    1
    17    24    25    1
    18     9     8    1
    19     9    10    1
    20     3     4    2
    21    25    26    2
    22    11    10    2
    23    10    16   am
    24   103   101    1
    25   102   101    1
    26    46    44    1
    27    39    40    1
    28   101   100    2
    29    35    34    2
    30   120   121   ar
    31   120   118   ar
    32    16    22    1
    33    16    17    1
    34    40    41    1
    35    40    43    1
    36   121   119   ar
    37    34    33    1
    38    22    21    1
    39    44    43    1
    40    44    45    1
    41   118   116   ar
    42    17    18    1
    43    17    20    1
    44   100    99    1
    45    32    33    1
    46    41    42    2
    47    33    36    1
    48    18    19    2
    49   119   117   ar
    50    21    20    1
    51    99    98    1
    52   116   117   ar
    53   116   115    1
    54   115   112    1
    55    36    38    1
    56    36    37    1
    57    47    48    1
    58    98    97    1
    59   112   113    1
    60   112   111    1
    61   114   113    2
    62    97    94    1
    63    52    54    1
    64    52    51    1
    65   109   108    1
    66    50    49    2
    67   108   105    1
    68   108   110    1
    69    48    51    1
    70    48    49    1
    71   105   104    1
    72   105   106    1
    73   104    95   am
    74    95    96    2
    75    95    94    1
    76    94    93    1
    77    51    53    1
    78   107   106    2
    79    93    89   am
    80    66    65    1
    81    65    63   ar
    82    65    64   ar
    83    63    61   ar
    84    64    62   ar
    85    61    60   ar
    86    62    60   ar
    87    60    59    1
    88    59    56    1
    89    85    84    2
    90    89    90    2
    91    89    88    1
    92    86    84   am
    93    84    83    1
    94    56    55    1
    95    56    57    1
    96    88    91    1
    97    88    87    1
    98    91    92    1
    99    57    58    2
   100    78    77    1
   101    76    77   ar
   102    76    74   ar
   103    77    75   ar
   104    74    72   ar
   105    83    80    1
   106    75    73   ar
   107    72    73   ar
   108    72    71    1
   109    80    79    1
   110    80    81    1
   111    71    68    1
   112    79    69   am
   113    69    68    1
   114    69    70    2
   115    82    81    2
   116    68    67    1
