@<TRIPOS>MOLECULE
tmp/2l8rA00.pdb
 204 199 0 0 0
SMALL
GASTEIGER

@<TRIPOS>ATOM
      1  N         -5.1360    1.6220  -14.3260 N.3    17  GLY17      -0.1210
      2  CA        -4.3220    2.7830  -14.5340 C.3    17  GLY17       0.1956
      3  C         -3.0600    2.6680  -13.7430 C.2    17  GLY17       0.2612
      4  O         -2.9390    1.7640  -12.9170 O.2    17  GLY17      -0.2717
      5  N         -2.1280    3.5590  -13.9720 N.am   18  ASP18      -0.1959
      6  CA        -0.8380    3.4940  -13.3050 C.3    18  ASP18       0.1840
      7  C         -0.9570    4.0150  -11.8740 C.2    18  ASP18       0.2622
      8  O         -1.5300    5.0870  -11.6380 O.2    18  ASP18      -0.2715
      9  CB         0.1870    4.3290  -14.0600 C.3    18  ASP18       0.1450
     10  CG         1.5840    4.1500  -13.5290 C.2    18  ASP18       0.3671
     11  OD1        2.2870    3.2500  -14.0050 O.co2  18  ASP18      -0.2456
     12  OD2        2.0060    4.9140  -12.6520 O.co2  18  ASP18      -0.2456
     13  N         -0.4110    3.2750  -10.9400 N.am   19  LEU19      -0.1963
     14  CA        -0.4800    3.6040   -9.5210 C.3    19  LEU19       0.1728
     15  C          0.3310    4.8570   -9.1760 C.2    19  LEU19       0.2616
     16  O          0.0050    5.5820   -8.2490 O.2    19  LEU19      -0.2715
     17  CB         0.0020    2.4220   -8.6790 C.3    19  LEU19       0.0311
     18  CG        -0.0620    2.6030   -7.1670 C.3    19  LEU19       0.0022
     19  CD1       -1.4920    2.7710   -6.6960 C.3    19  LEU19       0.0001
     20  CD2        0.5950    1.4500   -6.4680 C.3    19  LEU19       0.0001
     21  N          1.3750    5.1110   -9.9160 N.am   20  PHE20      -0.1974
     22  CA         2.2460    6.2430   -9.6370 C.3    20  PHE20       0.1639
     23  C          1.6630    7.5640  -10.1090 C.2    20  PHE20       0.2290
     24  O          2.2560    8.6230   -9.9200 O.2    20  PHE20      -0.2864
     25  CB         3.6570    5.9970  -10.1610 C.3    20  PHE20       0.0560
     26  CG         4.3310    4.8750   -9.4340 C.ar   20  PHE20      -0.0200
     27  CD1        4.1640    3.5590   -9.8330 C.ar   20  PHE20      -0.0042
     28  CD2        5.1100    5.1350   -8.3280 C.ar   20  PHE20      -0.0042
     29  CE1        4.7570    2.5370   -9.1400 C.ar   20  PHE20      -0.0003
     30  CE2        5.7120    4.1170   -7.6370 C.ar   20  PHE20      -0.0003
     31  CZ         5.5330    2.8150   -8.0430 C.ar   20  PHE20      -0.0000
     32  N          2.1570   -1.2150   -0.3540 N.3    30  HIS30      -0.1226
     33  CA         2.5170   -2.4570   -1.0260 C.3    30  HIS30       0.1752
     34  C          3.2940   -3.3470   -0.0920 C.2    30  HIS30       0.2596
     35  O          3.8500   -2.8760    0.9010 O.2    30  HIS30      -0.2718
     36  CB         3.3070   -2.2210   -2.3370 C.3    30  HIS30       0.0759
     37  CG         4.5960   -1.4710   -2.1790 C.ar   30  HIS30       0.0818
     38  ND1        5.8390   -2.0440   -2.3810 N.ar   30  HIS30      -0.2268
     39  CD2        4.8290   -0.1680   -1.8970 C.ar   30  HIS30       0.1154
     40  CE1        6.7610   -1.1370   -2.2400 C.ar   30  HIS30       0.1986
     41  NE2        6.1810    0.0130   -1.9450 N.ar   30  HIS30      -0.2212
     42  N          3.3530   -4.6010   -0.4140 N.am   31  CYS31      -0.1956
     43  CA         4.0200   -5.5670    0.4150 C.3    31  CYS31       0.1843
     44  C          5.4100   -5.8700   -0.1160 C.2    31  CYS31       0.2625
     45  O          5.6340   -5.8370   -1.3280 O.2    31  CYS31      -0.2714
     46  CB         3.2010   -6.8490    0.4300 C.3    31  CYS31       0.0997
     47  SG         1.4800   -6.6070    0.8990 S.3    31  CYS31      -0.0797
     48  N          6.3340   -6.1150    0.7950 N.am   32  ILE32      -0.1963
     49  CA         7.6870   -6.5630    0.4890 C.3    32  ILE32       0.1727
     50  C          8.1570   -7.4570    1.6180 C.2    32  ILE32       0.2616
     51  O          7.4690   -7.5960    2.6250 O.2    32  ILE32      -0.2715
     52  CB         8.7330   -5.4240    0.2820 C.3    32  ILE32       0.0290
     53  CG1        8.8140   -4.5090    1.4990 C.3    32  ILE32       0.0022
     54  CG2        8.4830   -4.6320   -1.0030 C.3    32  ILE32       0.0023
     55  CD1        9.8980   -3.4750    1.3800 C.3    32  ILE32       0.0001
     56  N          9.2880   -8.0570    1.4620 N.am   33  SER33      -0.1950
     57  CA         9.8160   -8.9550    2.4520 C.3    33  SER33       0.1924
     58  C         10.7750   -8.2150    3.4460 C.2    33  SER33       0.2314
     59  O         11.1020   -7.0390    3.2330 O.2    33  SER33      -0.2863
     60  CB        10.5270  -10.0860    1.7140 C.3    33  SER33       0.2116
     61  OG        11.4140   -9.5660    0.7240 O.3    33  SER33      -0.2180
     62  N         13.2950   -6.6110   -1.0810 N.3    37  ARG37      -0.1245
     63  CA        13.6930   -6.7030   -2.4540 C.3    37  ARG37       0.1563
     64  C         12.6710   -6.0150   -3.3130 C.2    37  ARG37       0.2260
     65  O         11.5350   -6.4740   -3.4170 O.2    37  ARG37      -0.2867
     66  CB        13.8270   -8.1570   -2.9020 C.3    37  ARG37       0.0307
     67  CG        14.9120   -8.9500   -2.2020 C.3    37  ARG37       0.0489
     68  CD        15.0030  -10.3550   -2.7820 C.3    37  ARG37       0.2205
     69  NE        15.2810  -10.3180   -4.2260 N.pl3  37  ARG37      -0.0865
     70  CZ        15.1890  -11.3630   -5.0680 C.cat  37  ARG37       0.5346
     71  NH1       14.8980  -12.5760   -4.6130 N.pl3  37  ARG37       0.1354
     72  NH2       15.4000  -11.1880   -6.3610 N.pl3  37  ARG37       0.1354
     73  N         11.6730   -6.7010   -8.1570 N.3    40  ALA40      -0.1231
     74  CA        10.7120   -7.6820   -8.5690 C.3    40  ALA40       0.1694
     75  C          9.3150   -7.0950   -8.4370 C.2    40  ALA40       0.2593
     76  O          8.9300   -6.6080   -7.3640 O.2    40  ALA40      -0.2718
     77  CB        10.8380   -8.9330   -7.7230 C.3    40  ALA40       0.0304
     78  N          8.5770   -7.1100   -9.5150 N.am   41  GLY41      -0.1942
     79  CA         7.2320   -6.6060   -9.4920 C.3    41  GLY41       0.2014
     80  C          7.1760   -5.0830   -9.5400 C.2    41  GLY41       0.2639
     81  O          8.0980   -4.4330  -10.0370 O.2    41  GLY41      -0.2714
     82  N          6.0960   -4.5280   -9.0130 N.am   42  ILE42      -0.1963
     83  CA         5.8590   -3.0750   -9.0030 C.3    42  ILE42       0.1727
     84  C          6.8070   -2.3380   -8.0230 C.2    42  ILE42       0.2616
     85  O          7.0210   -1.1210   -8.1250 O.2    42  ILE42      -0.2715
     86  CB         4.3620   -2.7520   -8.6720 C.3    42  ILE42       0.0290
     87  CG1        4.1010   -1.2320   -8.7090 C.3    42  ILE42       0.0022
     88  CG2        3.9440   -3.3600   -7.3310 C.3    42  ILE42       0.0023
     89  CD1        2.6870   -0.8290   -8.3680 C.3    42  ILE42       0.0001
     90  N          7.3880   -3.0940   -7.0980 N.am   43  ALA43      -0.1977
     91  CA         8.2600   -2.5510   -6.0570 C.3    43  ALA43       0.1597
     92  C          9.4430   -1.7570   -6.6350 C.2    43  ALA43       0.2287
     93  O          9.9410   -0.8190   -5.9900 O.2    43  ALA43      -0.2864
     94  CB         8.7330   -3.6680   -5.1340 C.3    43  ALA43       0.0319
     95  N          9.6070    0.4450   -9.0530 N.3    45  LEU45      -0.1245
     96  CA         9.3470    1.8480   -9.2980 C.3    45  LEU45       0.1561
     97  C          9.3520    2.6450   -7.9980 C.2    45  LEU45       0.2260
     98  O          9.8240    3.7840   -7.9670 O.2    45  LEU45      -0.2867
     99  CB         8.0350    2.1000  -10.0800 C.3    45  LEU45       0.0270
    100  CG         7.8500    1.4350  -11.4650 C.3    45  LEU45       0.0019
    101  CD1        7.5620   -0.0610  -11.3520 C.3    45  LEU45       0.0001
    102  CD2        6.7530    2.1290  -12.2510 C.3    45  LEU45       0.0001
    103  N          6.3370   -8.4980    5.0200 N.3    81  THR81      -0.1218
    104  CA         5.7400   -9.7890    5.0200 C.3    81  THR81       0.1862
    105  C          6.5790  -10.8430    5.7410 C.2    81  THR81       0.2287
    106  O          6.4120  -11.0610    6.9260 O.2    81  THR81      -0.2866
    107  CB         5.4190  -10.2210    3.5830 C.3    81  THR81       0.1770
    108  OG1        6.6070  -10.1030    2.7670 O.3    81  THR81      -0.2211
    109  CG2        4.3150   -9.3530    3.0140 C.3    81  THR81       0.0375
    110  N         11.6330  -13.2660   -0.6880 N.3    85  ALA85      -0.1245
    111  CA        10.6320  -13.4700   -1.7600 C.3    85  ALA85       0.1562
    112  C         10.3710  -14.9490   -2.0510 C.2    85  ALA85       0.2260
    113  O          9.3600  -15.3090   -2.6320 O.2    85  ALA85      -0.2867
    114  CB        11.0510  -12.7310   -3.0260 C.3    85  ALA85       0.0290
    115  N          4.1950  -15.5080    2.1580 N.3    89  PRO89      -0.2116
    116  CA         3.5640  -14.7710    3.2570 C.3    89  PRO89       0.1372
    117  C          2.2440  -15.3970    3.6820 C.2    89  PRO89       0.2244
    118  O          1.5260  -15.9720    2.8680 O.2    89  PRO89      -0.2868
    119  CB         3.3020  -13.3750    2.6660 C.3    89  PRO89       0.0268
    120  CG         4.1740  -13.2870    1.4660 C.3    89  PRO89       0.0207
    121  CD         4.3020  -14.6840    0.9430 C.3    89  PRO89       0.0892
    122  N         -1.5670   -1.3270   -5.4320 N.3   116  PRO116     -0.2102
    123  CA        -1.7810   -2.1420   -6.6050 C.3   116  PRO116      0.1504
    124  C         -2.4430   -3.4410   -6.1780 C.2   116  PRO116      0.2576
    125  O         -2.9220   -3.5540   -5.0400 O.2   116  PRO116     -0.2718
    126  CB        -0.3520   -2.4150   -7.0650 C.3   116  PRO116      0.0282
    127  CG         0.4280   -2.5130   -5.7940 C.3   116  PRO116      0.0208
    128  CD        -0.2400   -1.5730   -4.8190 C.3   116  PRO116      0.0893
    129  N         -2.4890   -4.4180   -7.0470 N.am  117  ARG117     -0.1966
    130  CA        -2.9680   -5.6970   -6.6120 C.3   117  ARG117      0.1729
    131  C         -1.8890   -6.4050   -5.8170 C.2   117  ARG117      0.2616
    132  O         -0.9960   -7.0550   -6.3830 O.2   117  ARG117     -0.2715
    133  CB        -3.4950   -6.5770   -7.7480 C.3   117  ARG117      0.0348
    134  CG        -4.7410   -6.0410   -8.4340 C.3   117  ARG117      0.0492
    135  CD        -5.2890   -7.0510   -9.4320 C.3   117  ARG117      0.2205
    136  NE        -5.6670   -8.3210   -8.7760 N.pl3 117  ARG117     -0.0865
    137  CZ        -6.1820   -9.3940   -9.4060 C.cat 117  ARG117      0.5346
    138  NH1       -6.4220   -9.3530  -10.7050 N.pl3 117  ARG117      0.1354
    139  NH2       -6.4670  -10.4990   -8.7170 N.pl3 117  ARG117      0.1354
    140  N         -1.9200   -6.1900   -4.5200 N.am  118  ILE118     -0.1963
    141  CA        -1.0100   -6.8360   -3.6170 C.3   118  ILE118      0.1727
    142  C         -1.5270   -8.2140   -3.3190 C.2   118  ILE118      0.2617
    143  O         -2.7270   -8.4510   -3.3780 O.2   118  ILE118     -0.2715
    144  CB        -0.8020   -6.0410   -2.2960 C.3   118  ILE118      0.0290
    145  CG1       -2.1340   -5.8330   -1.5450 C.3   118  ILE118      0.0022
    146  CG2       -0.1280   -4.7080   -2.5840 C.3   118  ILE118      0.0023
    147  CD1       -1.9900   -5.1080   -0.2180 C.3   118  ILE118      0.0001
    148  N         -0.6490   -9.1230   -3.0340 N.am  119  GLY119     -0.1940
    149  CA        -1.0840  -10.4640   -2.8250 C.3   119  GLY119      0.2014
    150  C         -1.5410  -11.0680   -4.1320 C.2   119  GLY119      0.2639
    151  O         -2.6000  -11.7020   -4.2080 O.2   119  GLY119     -0.2714
    152  N         -0.7530  -10.8200   -5.1760 N.am  120  CYS120     -0.1953
    153  CA        -1.0410  -11.2990   -6.5180 C.3   120  CYS120      0.1843
    154  C          0.2610  -11.4880   -7.3320 C.2   120  CYS120      0.2626
    155  O          0.2110  -11.8220   -8.5270 O.2   120  CYS120     -0.2714
    156  CB        -1.9560  -10.3030   -7.2670 C.3   120  CYS120      0.0997
    157  SG        -3.5450   -9.9470   -6.4680 S.3   120  CYS120     -0.0797
    158  N          1.4030  -11.2920   -6.7050 N.am  121  GLY121     -0.1940
    159  CA         2.6510  -11.3760   -7.4260 C.3   121  GLY121      0.2014
    160  C          3.5490  -12.4650   -6.8930 C.2   121  GLY121      0.2639
    161  O          3.1210  -13.6050   -6.7380 O.2   121  GLY121     -0.2714
    162  N          4.7910  -12.1010   -6.5770 N.am  122  LEU122     -0.1963
    163  CA         5.7780  -13.0490   -6.0350 C.3   122  LEU122      0.1728
    164  C          5.3970  -13.4720   -4.6320 C.2   122  LEU122      0.2616
    165  O          5.9150  -14.4400   -4.0940 O.2   122  LEU122     -0.2715
    166  CB         7.2200  -12.4990   -6.0680 C.3   122  LEU122      0.0311
    167  CG         7.8570  -12.2510   -7.4540 C.3   122  LEU122      0.0022
    168  CD1        7.2040  -11.0910   -8.1990 C.3   122  LEU122      0.0001
    169  CD2        9.3430  -12.0350   -7.3170 C.3   122  LEU122      0.0001
    170  N          4.5060  -12.6930   -4.0540 N.am  123  ASP123     -0.1971
    171  CA         3.9010  -12.9460   -2.7540 C.3   123  ASP123      0.1709
    172  C          3.0690  -14.2480   -2.7820 C.2   123  ASP123      0.2293
    173  O          2.8400  -14.8660   -1.7440 O.2   123  ASP123     -0.2864
    174  CB         3.0140  -11.7600   -2.3870 C.3   123  ASP123      0.1436
    175  CG         2.0450  -11.4410   -3.4970 C.2   123  ASP123      0.3671
    176  OD1        1.1470  -12.2280   -3.7400 O.co2 123  ASP123     -0.2456
    177  OD2        2.2240  -10.4030   -4.1960 O.co2 123  ASP123     -0.2456
    178  N         -4.9420    0.2730   -8.1270 N.3   148  TYR148     -0.1227
    179  CA        -4.6240    0.4620   -9.4890 C.3   148  TYR148      0.1736
    180  C         -4.1870   -0.8400  -10.0530 C.2   148  TYR148      0.2596
    181  O         -3.2470   -1.4800   -9.5620 O.2   148  TYR148     -0.2718
    182  CB        -3.6170    1.5840   -9.6930 C.3   148  TYR148      0.0548
    183  CG        -4.2340    2.9570   -9.5140 C.ar  148  TYR148     -0.0200
    184  CD1       -4.6230    3.4230   -8.2630 C.ar  148  TYR148     -0.0009
    185  CD2       -4.4560    3.7700  -10.6080 C.ar  148  TYR148     -0.0009
    186  CE1       -5.2090    4.6640   -8.1190 C.ar  148  TYR148      0.0417
    187  CE2       -5.0410    5.0060  -10.4720 C.ar  148  TYR148      0.0417
    188  CZ        -5.4150    5.4520   -9.2310 C.ar  148  TYR148      0.1957
    189  OH        -6.0080    6.6900   -9.1020 O.3   148  TYR148     -0.2866
    190  N         -4.8940   -1.2480  -11.0310 N.am  149  THR149     -0.1939
    191  CA        -4.7330   -2.5140  -11.6100 C.3   149  THR149      0.2028
    192  C         -4.2040   -2.3710  -13.0290 C.2   149  THR149      0.2642
    193  O         -4.7870   -1.6690  -13.8530 O.2   149  THR149     -0.2714
    194  CB        -6.1090   -3.2010  -11.6040 C.3   149  THR149      0.1808
    195  OG1       -6.6260   -3.1570  -10.2610 O.3   149  THR149     -0.2208
    196  CG2       -6.0080   -4.6370  -12.0300 C.3   149  THR149      0.0379
    197  N         -3.0930   -3.0060  -13.2900 N.am  150  LEU150     -0.1977
    198  CA        -2.4970   -3.0010  -14.5980 C.3   150  LEU150      0.1596
    199  C         -2.5320   -4.3880  -15.1790 C.2   150  LEU150      0.2287
    200  O         -3.3300   -4.6320  -16.1090 O.2   150  LEU150     -0.2864
    201  CB        -1.0690   -2.4170  -14.6090 C.3   150  LEU150      0.0297
    202  CG        -0.9430   -0.9320  -14.3140 C.3   150  LEU150      0.0022
    203  CD1        0.5000   -0.4870  -14.4530 C.3   150  LEU150      0.0001
    204  CD2       -1.8230   -0.1500  -15.2460 C.3   150  LEU150      0.0001
@<TRIPOS>BOND
     1   200   199    2
     2   204   202    1
     3   199   198    1
     4   201   198    1
     5   201   202    1
     6   198   197    1
     7     2     1    1
     8     2     3    1
     9   203   202    1
    10     9    10    1
    11     9     6    1
    12    11    10   ar
    13     5     3   am
    14     5     6    1
    15   193   192    2
    16     3     4    2
    17    10    12   ar
    18     6     7    1
    19   197   192   am
    20   192   191    1
    21   102   100    1
    22   196   194    1
    23     7     8    2
    24     7    13   am
    25   191   194    1
    26   191   190    1
    27   194   195    1
    28   100   101    1
    29   100    99    1
    30   190   180   am
    31    13    14    1
    32   138   137    1
    33   185   187   ar
    34   185   183   ar
    35   187   188   ar
    36    25    22    1
    37    25    26    1
    38    23    24    2
    39    23    22    1
    40    99    96    1
    41   180   181    2
    42   180   179    1
    43    81    80    2
    44    21    22    1
    45    21    15   am
    46    27    26   ar
    47    27    29   ar
    48   182   183    1
    49   182   179    1
    50    80    79    1
    51    80    82   am
    52    14    15    1
    53    14    17    1
    54    78    79    1
    55    78    75   am
    56   183   184   ar
    57   179   178    1
    58    26    28   ar
    59   135   136    1
    60   135   134    1
    61   137   136    2
    62   137   139    1
    63    96    95    1
    64    96    97    1
    65   188   189    1
    66   188   186   ar
    67    15    16    2
    68    29    31   ar
    69    82    83    1
    70    83    86    1
    71    83    84    1
    72    87    86    1
    73    87    89    1
    74    17    18    1
    75    86    88    1
    76    74    75    1
    77    74    73    1
    78    74    77    1
    79   155   154    2
    80    75    76    2
    81   134   133    1
    82    28    30   ar
    83   184   186   ar
    84   168   167    1
    85    85    84    2
    86    31    30   ar
    87    84    90   am
    88    97    98    2
    89   133   130    1
    90   167   169    1
    91   167   166    1
    92   159   160    1
    93   159   158    1
    94   154   158   am
    95   154   153    1
    96   156   153    1
    97   156   157    1
    98    18    19    1
    99    18    20    1
   100    90    91    1
   101   126   123    1
   102   126   127    1
   103   129   130    1
   104   129   124   am
   105   160   161    2
   106   160   162   am
   107    92    91    1
   108    92    93    2
   109   130   131    1
   110   123   124    1
   111   123   122    1
   112   162   163    1
   113   153   152    1
   114   132   131    2
   115    72    70    1
   116   124   125    2
   117   166   163    1
   118    91    94    1
   119   163   164    1
   120   131   140   am
   121   127   128    1
   122   122   128    1
   123   152   150   am
   124    70    71    1
   125    70    69    2
   126   164   165    2
   127   164   170   am
   128   140   141    1
   129    69    68    1
   130   151   150    2
   131   177   175   ar
   132   150   149    1
   133   170   171    1
   134   176   175   ar
   135   141   142    1
   136   141   144    1
   137   175   174    1
   138    65    64    2
   139   143   142    2
   140   142   148   am
   141    64    63    1
   142   148   149    1
   143   114   111    1
   144    66    63    1
   145    66    67    1
   146   172   171    1
   147   172   173    2
   148    68    67    1
   149   171   174    1
   150   113   112    2
   151   146   144    1
   152    63    62    1
   153    38    40   ar
   154    38    37   ar
   155    36    37    1
   156    36    33    1
   157   144   145    1
   158    40    41   ar
   159    37    39   ar
   160   112   111    1
   161    41    39   ar
   162   111   110    1
   163   145   147    1
   164    45    44    2
   165    33    32    1
   166    33    34    1
   167    54    52    1
   168    42    34   am
   169    42    43    1
   170    44    43    1
   171    44    48   am
   172    34    35    2
   173    52    49    1
   174    52    53    1
   175    43    46    1
   176    46    47    1
   177    49    48    1
   178    49    50    1
   179    61    60    1
   180   121   120    1
   181   121   115    1
   182    55    53    1
   183    56    50   am
   184    56    57    1
   185   120   119    1
   186    50    51    2
   187    60    57    1
   188   115   116    1
   189    57    58    1
   190   119   116    1
   191   108   107    1
   192   118   117    2
   193   109   107    1
   194    59    58    2
   195   116   117    1
   196   107   104    1
   197   104   103    1
   198   104   105    1
   199   105   106    2
