@<TRIPOS>MOLECULE
tmp/2l98A00.pdb
 124 115 0 0 0
SMALL
GASTEIGER

@<TRIPOS>ATOM
      1  N          7.2450   13.2600    5.2380 N.3    11  LEU11      -0.1245
      2  CA         7.6030   13.6980    3.8530 C.3    11  LEU11       0.1561
      3  C          6.6040   14.7650    3.3720 C.2    11  LEU11       0.2260
      4  O          6.9190   15.5800    2.5320 O.2    11  LEU11      -0.2867
      5  CB         7.5120   12.4330    2.9900 C.3    11  LEU11       0.0270
      6  CG         8.3060   12.6330    1.6930 C.3    11  LEU11       0.0019
      7  CD1        9.7350   12.1110    1.8770 C.3    11  LEU11       0.0001
      8  CD2        7.6330   11.8640    0.5520 C.3    11  LEU11       0.0001
      9  N          7.8770   18.8020    4.7040 N.3    15  PHE15      -0.1241
     10  CA         8.4290   19.2730    3.3940 C.3    15  PHE15       0.1605
     11  C          7.7160   20.5380    2.8870 C.2    15  PHE15       0.2264
     12  O          8.2310   21.2260    2.0280 O.2    15  PHE15      -0.2867
     13  CB         8.1930   18.1130    2.4320 C.3    15  PHE15       0.0534
     14  CG         9.3020   17.0920    2.5820 C.ar   15  PHE15      -0.0203
     15  CD1        9.5770   16.5240    3.8340 C.ar   15  PHE15      -0.0042
     16  CD2       10.0540   16.7150    1.4660 C.ar   15  PHE15      -0.0042
     17  CE1       10.6040   15.5810    3.9650 C.ar   15  PHE15      -0.0003
     18  CE2       11.0800   15.7730    1.5960 C.ar   15  PHE15      -0.0003
     19  CZ        11.3560   15.2060    2.8460 C.ar   15  PHE15      -0.0000
     20  N          1.2880   21.1600   -0.4350 N.3    23  ILE23      -0.1245
     21  CA         2.5520   21.4980   -1.1630 C.3    23  ILE23       0.1561
     22  C          2.2310   22.0530   -2.5590 C.2    23  ILE23       0.2260
     23  O          1.3380   21.5840   -3.2350 O.2    23  ILE23      -0.2867
     24  CB         3.3320   20.1810   -1.2490 C.3    23  ILE23       0.0252
     25  CG1        3.9270   19.8650    0.1320 C.3    23  ILE23       0.0019
     26  CG2        4.4600   20.3150   -2.2810 C.3    23  ILE23       0.0019
     27  CD1        4.8250   18.6260    0.0570 C.3    23  ILE23       0.0001
     28  N          7.9150   22.0060   -4.4450 N.3    28  LEU28      -0.1245
     29  CA         8.3630   20.6930   -5.0310 C.3    28  LEU28       0.1561
     30  C          9.7110   20.8740   -5.7440 C.2    28  LEU28       0.2260
     31  O         10.6390   20.1110   -5.5440 O.2    28  LEU28      -0.2867
     32  CB         7.2950   20.2910   -6.0580 C.3    28  LEU28       0.0270
     33  CG         5.9410   20.0510   -5.3840 C.3    28  LEU28       0.0019
     34  CD1        4.8380   20.2850   -6.4140 C.3    28  LEU28       0.0001
     35  CD2        5.8550   18.6050   -4.8820 C.3    28  LEU28       0.0001
     36  N         12.4390   21.3610   -3.1970 N.3    31  MET31      -0.1230
     37  CA        12.6820   20.2320   -2.2450 C.3    31  MET31       0.1702
     38  C         13.6850   19.2240   -2.8220 C.2    31  MET31       0.2592
     39  O         14.6540   18.8680   -2.1770 O.2    31  MET31      -0.2718
     40  CB        11.3150   19.5720   -2.0530 C.3    31  MET31       0.0401
     41  CG        11.4460   18.3980   -1.0790 C.3    31  MET31       0.0596
     42  SD        12.0510   19.0030    0.5170 S.3    31  MET31      -0.1393
     43  CE        10.6160   20.0260    0.9290 C.3    31  MET31       0.0692
     44  N         13.4550   18.7530   -4.0230 N.am   32  LEU32      -0.1980
     45  CA        14.3930   17.7570   -4.6330 C.3    32  LEU32       0.1596
     46  C         15.7640   18.3860   -4.9330 C.2    32  LEU32       0.2287
     47  O         16.7150   17.6820   -5.2130 O.2    32  LEU32      -0.2864
     48  CB        13.7100   17.2940   -5.9230 C.3    32  LEU32       0.0297
     49  CG        13.9510   15.7950   -6.1210 C.3    32  LEU32       0.0022
     50  CD1       13.0930   14.9950   -5.1350 C.3    32  LEU32       0.0001
     51  CD2       13.5730   15.4010   -7.5510 C.3    32  LEU32       0.0001
     52  N         18.6230   16.6680   -3.3180 N.3    35  THR35      -0.1218
     53  CA        19.0410   15.3180   -3.8240 C.3    35  THR35       0.1862
     54  C         19.2590   15.3310   -5.3500 C.2    35  THR35       0.2287
     55  O         19.6920   14.3480   -5.9230 O.2    35  THR35      -0.2866
     56  CB        17.8910   14.3700   -3.4490 C.3    35  THR35       0.1770
     57  OG1       18.2670   13.0290   -3.7380 O.3    35  THR35      -0.2211
     58  CG2       16.6320   14.7210   -4.2460 C.3    35  THR35       0.0375
     59  N          6.5660   15.4750  -11.9770 N.3    47  LEU47      -0.1245
     60  CA         6.0810   14.9280  -10.6740 C.3    47  LEU47       0.1561
     61  C          4.7330   15.5790  -10.3200 C.2    47  LEU47       0.2260
     62  O          3.8510   14.9380   -9.7820 O.2    47  LEU47      -0.2867
     63  CB         7.1660   15.2820   -9.6390 C.3    47  LEU47       0.0270
     64  CG         8.4860   14.5270   -9.9230 C.3    47  LEU47       0.0019
     65  CD1        9.1110   14.0660   -8.5980 C.3    47  LEU47       0.0001
     66  CD2        8.2380   13.3010  -10.8100 C.3    47  LEU47       0.0001
     67  N          1.1450   13.9410   -8.7930 N.3    51  GLY51      -0.1225
     68  CA         0.7300   14.4950   -7.4670 C.3    51  GLY51       0.1811
     69  C         -0.5670   15.2910   -7.6480 C.2    51  GLY51       0.2280
     70  O         -1.4710   15.2120   -6.8410 O.2    51  GLY51      -0.2866
     71  N         -1.0800   20.4440   -3.4970 N.3    59  ILE59      -0.1245
     72  CA        -1.0250   18.9670   -3.2590 C.3    59  ILE59       0.1561
     73  C         -1.4480   18.6250   -1.8240 C.2    59  ILE59       0.2260
     74  O         -0.9130   19.1480   -0.8650 O.2    59  ILE59      -0.2867
     75  CB         0.4420   18.5830   -3.5060 C.3    59  ILE59       0.0252
     76  CG1        0.8860   19.0990   -4.8800 C.3    59  ILE59       0.0019
     77  CG2        0.5930   17.0620   -3.4800 C.3    59  ILE59       0.0019
     78  CD1        2.3360   18.6870   -5.1440 C.3    59  ILE59       0.0001
     79  N         -1.2800   12.8410   -2.3700 N.3    64  PHE64      -0.1241
     80  CA         0.1140   12.3700   -2.0830 C.3    64  PHE64       0.1605
     81  C          0.1870   10.8430   -2.2310 C.2    64  PHE64       0.2264
     82  O          1.1430   10.3050   -2.7560 O.2    64  PHE64      -0.2867
     83  CB         0.3700   12.7910   -0.6280 C.3    64  PHE64       0.0534
     84  CG         1.8460   13.0220   -0.3990 C.ar   64  PHE64      -0.0203
     85  CD1        2.5050   14.0540   -1.0760 C.ar   64  PHE64      -0.0042
     86  CD2        2.5540   12.2090    0.4960 C.ar   64  PHE64      -0.0042
     87  CE1        3.8700   14.2730   -0.8600 C.ar   64  PHE64      -0.0003
     88  CE2        3.9190   12.4300    0.7110 C.ar   64  PHE64      -0.0003
     89  CZ         4.5760   13.4630    0.0330 C.ar   64  PHE64      -0.0000
     90  N          0.3860    9.8420   -5.8720 N.3    67  PHE67      -0.1227
     91  CA         1.7050   10.1690   -6.4980 C.3    67  PHE67       0.1736
     92  C          2.7620    9.0950   -6.1860 C.2    67  PHE67       0.2595
     93  O          3.5750    8.7650   -7.0280 O.2    67  PHE67      -0.2718
     94  CB         2.1160   11.5110   -5.8870 C.3    67  PHE67       0.0547
     95  CG         3.4920   11.8810   -6.3830 C.ar   67  PHE67      -0.0202
     96  CD1        3.6530   12.4180   -7.6620 C.ar   67  PHE67      -0.0042
     97  CD2        4.6060   11.6720   -5.5680 C.ar   67  PHE67      -0.0042
     98  CE1        4.9280   12.7480   -8.1270 C.ar   67  PHE67      -0.0003
     99  CE2        5.8810   12.0040   -6.0310 C.ar   67  PHE67      -0.0003
    100  CZ         6.0420   12.5420   -7.3120 C.ar   67  PHE67      -0.0000
    101  N          2.7730    8.5620   -4.9840 N.am   68  MET68      -0.1979
    102  CA         3.7980    7.5220   -4.6210 C.3    68  MET68       0.1605
    103  C          3.8370    6.3800   -5.6510 C.2    68  MET68       0.2287
    104  O          4.8680    5.7720   -5.8650 O.2    68  MET68      -0.2864
    105  CB         3.3700    6.9800   -3.2580 C.3    68  MET68       0.0413
    106  CG         3.7720    7.9630   -2.1570 C.3    68  MET68       0.0598
    107  SD         5.3820    7.4830   -1.4800 S.3    68  MET68      -0.1393
    108  CE         6.3400    8.8470   -2.1830 C.3    68  MET68       0.0692
    109  N          5.7640    8.1100   -8.8040 N.3    71  VAL71      -0.1231
    110  CA         7.1790    8.4490   -8.4490 C.3    71  VAL71       0.1692
    111  C          7.9130    7.2180   -7.8930 C.2    71  VAL71       0.2591
    112  O          9.1210    7.1130   -8.0030 O.2    71  VAL71      -0.2718
    113  CB         7.0800    9.5610   -7.3940 C.3    71  VAL71       0.0266
    114  CG1        6.8230    8.9620   -6.0060 C.3    71  VAL71       0.0020
    115  CG2        8.3920   10.3520   -7.3710 C.3    71  VAL71       0.0020
    116  N          7.1900    6.2900   -7.3010 N.am   72  GLU72      -0.1979
    117  CA         7.8280    5.0590   -6.7320 C.3    72  GLU72       0.1602
    118  C          8.8560    5.4390   -5.6460 C.2    72  GLU72       0.2287
    119  O          8.5370    6.2870   -4.8280 O.2    72  GLU72      -0.2864
    120  CB         8.4910    4.3610   -7.9330 C.3    72  GLU72       0.0415
    121  CG         7.7460    3.0600   -8.2490 C.3    72  GLU72       0.1163
    122  CD         8.3150    1.9210   -7.4000 C.2    72  GLU72       0.3649
    123  OE1        8.0260    1.8870   -6.2150 O.co2  72  GLU72      -0.2457
    124  OE2        9.0270    1.0980   -7.9510 O.co2  72  GLU72      -0.2457
@<TRIPOS>BOND
     1    59    60    1
     2    66    64    1
     3    60    61    1
     4    60    63    1
     5    61    62    2
     6    64    63    1
     7    64    65    1
     8   109   110    1
     9    67    68    1
    10   110   111    1
    11   110   113    1
    12   121   120    1
    13   121   122    1
    14    98    96   ar
    15    98   100   ar
    16   112   111    2
    17   124   122   ar
    18   120   117    1
    19   111   116   am
    20    96    95   ar
    21    69    68    1
    22    69    70    2
    23    51    49    1
    24   122   123   ar
    25   113   115    1
    26   113   114    1
    27   100    99   ar
    28   116   117    1
    29    93    92    2
    30   117   118    1
    31    91    92    1
    32    91    94    1
    33    91    90    1
    34    34    33    1
    35    95    94    1
    36    95    97   ar
    37    92   101   am
    38    49    48    1
    39    49    50    1
    40    32    33    1
    41    32    29    1
    42    99    97   ar
    43    55    54    2
    44    48    45    1
    45   104   103    2
    46    30    31    2
    47    30    29    1
    48   103   102    1
    49   118   119    2
    50    33    35    1
    51    54    53    1
    52    47    46    2
    53    78    76    1
    54    29    28    1
    55   101   102    1
    56    46    45    1
    57    76    75    1
    58    45    44    1
    59   102   105    1
    60    58    56    1
    61    44    38   am
    62    53    56    1
    63    53    52    1
    64    57    56    1
    65    75    77    1
    66    75    72    1
    67    71    72    1
    68    72    73    1
    69   105   106    1
    70    23    22    2
    71    36    37    1
    72    38    37    1
    73    38    39    2
    74    82    81    2
    75    22    21    1
    76    79    80    1
    77    26    24    1
    78    37    40    1
    79    81    80    1
    80   108   107    1
    81   106   107    1
    82    80    83    1
    83    40    41    1
    84    73    74    2
    85    24    21    1
    86    24    25    1
    87    21    20    1
    88    41    42    1
    89    85    87   ar
    90    85    84   ar
    91    87    89   ar
    92    83    84    1
    93    84    86   ar
    94    89    88   ar
    95    27    25    1
    96    86    88   ar
    97    42    43    1
    98     8     6    1
    99    16    18   ar
   100    16    14   ar
   101    18    19   ar
   102     6     7    1
   103     6     5    1
   104    12    11    2
   105    13    14    1
   106    13    10    1
   107     4     3    2
   108    14    15   ar
   109    19    17   ar
   110    11    10    1
   111     5     2    1
   112     3     2    1
   113    10     9    1
   114    15    17   ar
   115     2     1    1
