@<TRIPOS>MOLECULE
tmp/2lb5A00.pdb
 239 228 0 0 0
SMALL
GASTEIGER

@<TRIPOS>ATOM
      1  N        118.2950  -71.6140   64.4080 N.3    22  LYS22      -0.1245
      2  CA       117.8150  -71.6980   63.0340 C.3    22  LYS22       0.1561
      3  C        117.8040  -70.3260   62.3670 C.2    22  LYS22       0.2260
      4  O        117.7080  -69.2970   63.0360 O.2    22  LYS22      -0.2867
      5  CB       116.4010  -72.2770   63.0170 C.3    22  LYS22       0.0271
      6  CG       115.4890  -71.4100   63.8860 C.3    22  LYS22       0.0035
      7  CD       114.1290  -72.0900   64.0450 C.3    22  LYS22       0.0206
      8  CE       113.2030  -71.1910   64.8660 C.3    22  LYS22       0.1093
      9  NZ       113.8250  -70.9140   66.1920 N.3    22  LYS22      -0.1314
     10  N        115.9880  -67.6900   59.6280 N.3    24  TYR24      -0.1241
     11  CA       114.6720  -67.4230   59.0590 C.3    24  TYR24       0.1605
     12  C        114.7490  -66.3610   57.9680 C.2    24  TYR24       0.2264
     13  O        115.1330  -65.2200   58.2220 O.2    24  TYR24      -0.2867
     14  CB       113.7150  -66.9570   60.1560 C.3    24  TYR24       0.0534
     15  CG       112.4990  -66.3220   59.5250 C.ar   24  TYR24      -0.0201
     16  CD1      112.4930  -64.9500   59.2450 C.ar   24  TYR24      -0.0009
     17  CD2      111.3790  -67.1040   59.2200 C.ar   24  TYR24      -0.0009
     18  CE1      111.3660  -64.3600   58.6600 C.ar   24  TYR24       0.0417
     19  CE2      110.2520  -66.5150   58.6350 C.ar   24  TYR24       0.0417
     20  CZ       110.2460  -65.1430   58.3550 C.ar   24  TYR24       0.1957
     21  OH       109.1340  -64.5620   57.7780 O.3    24  TYR24      -0.2866
     22  N        112.1870  -71.6710   56.7450 N.3    34  VAL34      -0.1245
     23  CA       113.3650  -72.0600   57.5120 C.3    34  VAL34       0.1561
     24  C        114.3150  -72.8730   56.6400 C.2    34  VAL34       0.2260
     25  O        113.9900  -73.9820   56.2160 O.2    34  VAL34      -0.2867
     26  CB       112.9540  -72.8860   58.7310 C.3    34  VAL34       0.0252
     27  CG1      114.1430  -73.0090   59.6860 C.3    34  VAL34       0.0019
     28  CG2      111.7930  -72.1930   59.4490 C.3    34  VAL34       0.0019
     29  N        106.6310  -70.0180   57.9960 N.3    52  PHE52      -0.1241
     30  CA       105.9740  -69.2410   59.0400 C.3    52  PHE52       0.1605
     31  C        105.2190  -68.0620   58.4350 C.2    52  PHE52       0.2264
     32  O        105.7150  -67.3920   57.5270 O.2    52  PHE52      -0.2867
     33  CB       107.0110  -68.7250   60.0410 C.3    52  PHE52       0.0534
     34  CG       107.4660  -69.8620   60.9240 C.ar   52  PHE52      -0.0203
     35  CD1      108.1290  -70.9610   60.3660 C.ar   52  PHE52      -0.0042
     36  CD2      107.2230  -69.8160   62.3020 C.ar   52  PHE52      -0.0042
     37  CE1      108.5500  -72.0150   61.1860 C.ar   52  PHE52      -0.0003
     38  CE2      107.6440  -70.8700   63.1220 C.ar   52  PHE52      -0.0003
     39  CZ       108.3080  -71.9690   62.5640 C.ar   52  PHE52      -0.0000
     40  N        101.9340  -62.8600   59.7390 N.3    55  GLY55      -0.1210
     41  CA       101.0400  -62.4500   60.8160 C.3    55  GLY55       0.1956
     42  C        101.6820  -62.6900   62.1790 C.2    55  GLY55       0.2612
     43  O        101.3360  -62.0350   63.1620 O.2    55  GLY55      -0.2717
     44  N        102.6170  -63.6330   62.2300 N.am   56  ASP56      -0.1959
     45  CA       103.3020  -63.9490   63.4770 C.3    56  ASP56       0.1840
     46  C        103.9090  -62.6910   64.0900 C.2    56  ASP56       0.2622
     47  O        104.1340  -62.6240   65.2990 O.2    56  ASP56      -0.2715
     48  CB       104.4050  -64.9770   63.2220 C.3    56  ASP56       0.1450
     49  CG       105.4040  -64.4280   62.2090 C.2    56  ASP56       0.3671
     50  OD1      105.2420  -63.2880   61.8060 O.co2  56  ASP56      -0.2456
     51  OD2      106.3160  -65.1560   61.8510 O.co2  56  ASP56      -0.2456
     52  N        104.1690  -61.6960   63.2490 N.am   57  ILE57      -0.1964
     53  CA       104.7390  -60.4400   63.7190 C.3    57  ILE57       0.1712
     54  C        104.1300  -59.2610   62.9670 C.2    57  ILE57       0.2458
     55  O        104.0450  -59.2710   61.7380 O.2    57  ILE57      -0.2730
     56  CB       106.2550  -60.4480   63.5180 C.3    57  ILE57       0.0289
     57  CG1      106.8490  -61.6940   64.1800 C.3    57  ILE57       0.0022
     58  CG2      106.8620  -59.1960   64.1530 C.3    57  ILE57       0.0023
     59  CD1      108.3750  -61.6440   64.0870 C.3    57  ILE57       0.0001
     60  N        103.7080  -58.2550   63.6840 N.am   58  PRO58      -0.2727
     61  CA       103.0780  -57.0450   63.0860 C.3    58  PRO58       0.1402
     62  C        104.0840  -56.1930   62.3140 C.2    58  PRO58       0.2269
     63  O        104.3260  -56.4230   61.1280 O.2    58  PRO58      -0.2865
     64  CB       102.5340  -56.2850   64.2960 C.3    58  PRO58       0.0296
     65  CG       103.3960  -56.7000   65.4440 C.3    58  PRO58       0.0237
     66  CD       103.8030  -58.1530   65.1900 C.3    58  PRO58       0.0939
     67  N        105.6380  -52.9220   64.3360 N.3    60  GLU60      -0.1231
     68  CA       106.2390  -52.1040   65.3820 C.3    60  GLU60       0.1699
     69  C        107.4180  -52.8310   66.0200 C.2    60  GLU60       0.2592
     70  O        108.4410  -52.2210   66.3320 O.2    60  GLU60      -0.2718
     71  CB       105.1970  -51.7770   66.4540 C.3    60  GLU60       0.0402
     72  CG       104.5570  -53.0730   66.9560 C.3    60  GLU60       0.1161
     73  CD       103.3980  -52.7520   67.8940 C.2    60  GLU60       0.3649
     74  OE1      103.2550  -51.5940   68.2520 O.co2  60  GLU60      -0.2457
     75  OE2      102.6700  -53.6670   68.2390 O.co2  60  GLU60      -0.2457
     76  N        107.2690  -54.1380   66.2120 N.am   61  ALA61      -0.1980
     77  CA       108.3350  -54.9390   66.8020 C.3    61  ALA61       0.1597
     78  C        109.5230  -55.0350   65.8510 C.2    61  ALA61       0.2287
     79  O        110.6750  -54.9100   66.2660 O.2    61  ALA61      -0.2864
     80  CB       107.8190  -56.3440   67.1190 C.3    61  ALA61       0.0319
     81  N        114.2330  -53.9980   65.2090 N.3    65  PHE65      -0.1241
     82  CA       115.2470  -54.7610   64.4900 C.3    65  PHE65       0.1605
     83  C        116.0010  -53.8680   63.5100 C.2    65  PHE65       0.2264
     84  O        117.1020  -54.2020   63.0730 O.2    65  PHE65      -0.2867
     85  CB       114.5910  -55.9120   63.7250 C.3    65  PHE65       0.0534
     86  CG       113.9260  -56.8530   64.7010 C.ar   65  PHE65      -0.0203
     87  CD1      112.9090  -56.3840   65.5420 C.ar   65  PHE65      -0.0042
     88  CD2      114.3240  -58.1930   64.7640 C.ar   65  PHE65      -0.0042
     89  CE1      112.2910  -57.2560   66.4460 C.ar   65  PHE65      -0.0003
     90  CE2      113.7070  -59.0650   65.6680 C.ar   65  PHE65      -0.0003
     91  CZ       112.6900  -58.5980   66.5090 C.ar   65  PHE65      -0.0000
     92  N        117.7150  -57.0220   69.6530 N.3    71  ARG71      -0.1231
     93  CA       116.7640  -58.1070   69.8650 C.3    71  ARG71       0.1694
     94  C        117.2510  -59.0260   70.9790 C.2    71  ARG71       0.2592
     95  O        118.0950  -59.8950   70.7550 O.2    71  ARG71      -0.2718
     96  CB       116.5890  -58.9110   68.5750 C.3    71  ARG71       0.0321
     97  CG       116.4440  -57.9540   67.3910 C.3    71  ARG71       0.0489
     98  CD       115.4220  -56.8690   67.7340 C.3    71  ARG71       0.2205
     99  NE       114.2390  -57.4650   68.3410 N.pl3  71  ARG71      -0.0865
    100  CZ       113.4320  -56.7500   69.1210 C.cat  71  ARG71       0.5346
    101  NH1      113.6970  -55.4940   69.3550 N.pl3  71  ARG71       0.1354
    102  NH2      112.3770  -57.3050   69.6510 N.pl3  71  ARG71       0.1354
    103  N        116.7180  -58.8270   72.1790 N.am   72  VAL72      -0.1966
    104  CA       117.0660  -59.6810   73.3090 C.3    72  VAL72       0.1727
    105  C        115.8440  -59.9350   74.1860 C.2    72  VAL72       0.2616
    106  O        115.1460  -59.0010   74.5800 O.2    72  VAL72      -0.2715
    107  CB       118.1660  -59.0160   74.1390 C.3    72  VAL72       0.0290
    108  CG1      117.6130  -57.7590   74.8120 C.3    72  VAL72       0.0023
    109  CG2      118.6540  -59.9950   75.2090 C.3    72  VAL72       0.0023
    110  N        115.5900  -61.2050   74.4860 N.am   73  ILE73      -0.1977
    111  CA       114.4280  -61.5710   75.2870 C.3    73  ILE73       0.1596
    112  C        114.8570  -62.0730   76.6620 C.2    73  ILE73       0.2287
    113  O        115.7340  -62.9290   76.7760 O.2    73  ILE73      -0.2864
    114  CB       113.6240  -62.6610   74.5780 C.3    73  ILE73       0.0276
    115  CG1      112.6940  -62.0180   73.5480 C.3    73  ILE73       0.0022
    116  CG2      112.7940  -63.4310   75.6040 C.3    73  ILE73       0.0022
    117  CD1      112.0250  -63.1110   72.7130 C.3    73  ILE73       0.0001
    118  N        104.5520  -56.0650   76.8090 N.3    82  SER82      -0.1202
    119  CA       104.7470  -54.9000   75.9540 C.3    82  SER82       0.2020
    120  C        103.7340  -54.9060   74.8150 C.2    82  SER82       0.2619
    121  O        103.7310  -55.8090   73.9790 O.2    82  SER82      -0.2717
    122  CB       106.1640  -54.9030   75.3780 C.3    82  SER82       0.2103
    123  OG       106.1010  -54.6730   73.9770 O.3    82  SER82      -0.2182
    124  N        102.8700  -53.8970   74.7930 N.am   83  ILE83      -0.1965
    125  CA       101.8520  -53.8040   73.7520 C.3    83  ILE83       0.1727
    126  C        102.0440  -52.5400   72.9200 C.2    83  ILE83       0.2616
    127  O        103.0800  -51.8800   73.0030 O.2    83  ILE83      -0.2715
    128  CB       100.4610  -53.7950   74.3870 C.3    83  ILE83       0.0290
    129  CG1      100.5670  -54.2310   75.8510 C.3    83  ILE83       0.0022
    130  CG2       99.5500  -54.7670   73.6320 C.3    83  ILE83       0.0023
    131  CD1      101.1110  -55.6580   75.9220 C.3    83  ILE83       0.0001
    132  N        101.0390  -52.2120   72.1140 N.am   84  SER84      -0.1950
    133  CA       101.1020  -51.0220   71.2750 C.3    84  SER84       0.1924
    134  C        100.8560  -49.7650   72.1030 C.2    84  SER84       0.2314
    135  O        100.5240  -49.8440   73.2860 O.2    84  SER84      -0.2863
    136  CB       100.0540  -51.1110   70.1650 C.3    84  SER84       0.2116
    137  OG       100.3660  -52.2060   69.3130 O.3    84  SER84      -0.2180
    138  N        114.1480  -56.0360   75.8520 N.3   103  ARG103     -0.1245
    139  CA       113.0700  -55.7400   74.9130 C.3   103  ARG103      0.1563
    140  C        111.8320  -56.5690   75.2380 C.2   103  ARG103      0.2260
    141  O        111.5910  -57.6090   74.6270 O.2   103  ARG103     -0.2867
    142  CB       113.5240  -56.0400   73.4840 C.3   103  ARG103      0.0307
    143  CG       114.7760  -55.2230   73.1630 C.3   103  ARG103      0.0489
    144  CD       114.3810  -53.9780   72.3660 C.3   103  ARG103      0.2205
    145  NE       113.3250  -53.2490   73.0590 N.pl3 103  ARG103     -0.0865
    146  CZ       113.6060  -52.4030   74.0430 C.cat 103  ARG103      0.5346
    147  NH1      114.8460  -52.2130   74.4050 N.pl3 103  ARG103      0.1354
    148  NH2      112.6450  -51.7610   74.6490 N.pl3 103  ARG103      0.1354
    149  N        108.2300  -58.2540   75.3990 N.3   105  VAL105     -0.1231
    150  CA       107.3580  -58.6450   74.2980 C.3   105  VAL105      0.1692
    151  C        105.9850  -59.0550   74.8230 C.2   105  VAL105      0.2592
    152  O        105.8790  -59.7540   75.8310 O.2   105  VAL105     -0.2718
    153  CB       107.9810  -59.8080   73.5240 C.3   105  VAL105      0.0266
    154  CG1      107.2400  -59.9980   72.2000 C.3   105  VAL105      0.0020
    155  CG2      109.4550  -59.5030   73.2440 C.3   105  VAL105      0.0020
    156  N        104.9380  -58.6170   74.1310 N.am  106  ASP106     -0.1974
    157  CA       103.5770  -58.9500   74.5350 C.3   106  ASP106      0.1709
    158  C        103.4730  -60.4290   74.8900 C.2   106  ASP106      0.2293
    159  O        104.2970  -61.2390   74.4660 O.2   106  ASP106     -0.2864
    160  CB       102.6000  -58.6280   73.4020 C.3   106  ASP106      0.1436
    161  CG       103.3390  -58.6020   72.0680 C.2   106  ASP106      0.3671
    162  OD1      104.0680  -59.5420   71.7990 O.co2 106  ASP106     -0.2456
    163  OD2      103.1620  -57.6440   71.3340 O.co2 106  ASP106     -0.2456
    164  N        102.1410  -62.5780   73.6810 N.3   108  CYS108     -0.1221
    165  CA       102.1020  -63.3820   72.4650 C.3   108  CYS108      0.1808
    166  C        103.3170  -64.3010   72.3970 C.2   108  CYS108      0.2601
    167  O        103.2000  -65.4770   72.0530 O.2   108  CYS108     -0.2717
    168  CB       102.0740  -62.4710   71.2360 C.3   108  CYS108      0.0970
    169  SG       100.4820  -62.6450   70.3920 S.3   108  CYS108     -0.0800
    170  N        104.4830  -63.7580   72.7330 N.am  109  HIS109     -0.1975
    171  CA       105.7190  -64.5270   72.6670 C.3   109  HIS109      0.1656
    172  C        105.8770  -65.3800   73.9210 C.2   109  HIS109      0.2291
    173  O        106.5080  -66.4360   73.8910 O.2   109  HIS109     -0.2864
    174  CB       106.9180  -63.5880   72.5330 C.3   109  HIS109      0.0771
    175  CG       107.5360  -63.3720   73.8870 C.ar  109  HIS109      0.0820
    176  ND1      108.8570  -63.6950   74.1560 N.ar  109  HIS109     -0.2267
    177  CD2      107.0300  -62.8620   75.0570 C.ar  109  HIS109      0.1154
    178  CE1      109.0980  -63.3810   75.4420 C.ar  109  HIS109      0.1986
    179  NE2      108.0170  -62.8690   76.0370 N.ar  109  HIS109     -0.2212
    180  N        104.3470  -68.5270   73.2380 N.3   112  TYR112     -0.1227
    181  CA       105.1010  -68.9830   72.0770 C.3   112  TYR112      0.1736
    182  C        106.4080  -69.6390   72.5130 C.2   112  TYR112      0.2595
    183  O        106.6580  -70.8060   72.2130 O.2   112  TYR112     -0.2718
    184  CB       105.4050  -67.8030   71.1520 C.3   112  TYR112      0.0548
    185  CG       105.6030  -68.3050   69.7430 C.ar  112  TYR112     -0.0200
    186  CD1      104.5170  -68.8080   69.0190 C.ar  112  TYR112     -0.0009
    187  CD2      106.8760  -68.2680   69.1600 C.ar  112  TYR112     -0.0009
    188  CE1      104.7010  -69.2750   67.7120 C.ar  112  TYR112      0.0417
    189  CE2      107.0610  -68.7350   67.8520 C.ar  112  TYR112      0.0417
    190  CZ       105.9740  -69.2390   67.1280 C.ar  112  TYR112      0.1957
    191  OH       106.1560  -69.6980   65.8400 O.3   112  TYR112     -0.2866
    192  N        107.2350  -68.8800   73.2260 N.am  113  LEU113     -0.1980
    193  CA       108.5090  -69.4020   73.7080 C.3   113  LEU113      0.1596
    194  C        108.2770  -70.5540   74.6810 C.2   113  LEU113      0.2287
    195  O        108.8060  -71.6500   74.4980 O.2   113  LEU113     -0.2864
    196  CB       109.2980  -68.2920   74.4070 C.3   113  LEU113      0.0297
    197  CG       110.1670  -67.5610   73.3820 C.3   113  LEU113      0.0022
    198  CD1      109.2740  -66.9180   72.3200 C.3   113  LEU113      0.0001
    199  CD2      110.9800  -66.4740   74.0880 C.3   113  LEU113      0.0001
    200  N        107.5150  -73.7790   73.4780 N.3   116  MET116     -0.1245
    201  CA       108.6780  -74.5160   72.9970 C.3   116  MET116      0.1570
    202  C        109.5050  -75.0320   74.1700 C.2   116  MET116      0.2261
    203  O        110.5050  -75.7250   73.9810 O.2   116  MET116     -0.2867
    204  CB       109.5450  -73.6120   72.1190 C.3   116  MET116      0.0387
    205  CG       108.7210  -73.1140   70.9290 C.3   116  MET116      0.0595
    206  SD       109.8220  -72.3510   69.7120 S.3   116  MET116     -0.1393
    207  CE       108.5600  -71.4060   68.8240 C.3   116  MET116      0.0692
    208  N        118.0180  -63.6890   70.2080 N.3   123  VAL123     -0.1245
    209  CA       117.7800  -63.4290   68.7930 C.3   123  VAL123      0.1561
    210  C        118.7470  -62.3760   68.2550 C.2   123  VAL123      0.2260
    211  O        119.2600  -61.5440   69.0030 O.2   123  VAL123     -0.2867
    212  CB       116.3430  -62.9540   68.5860 C.3   123  VAL123      0.0252
    213  CG1      115.9650  -61.9720   69.6960 C.3   123  VAL123      0.0019
    214  CG2      116.2280  -62.2600   67.2280 C.3   123  VAL123      0.0019
    215  N        117.0030  -63.5520   59.3160 N.3   135  LEU135     -0.1245
    216  CA       116.9020  -63.3350   60.7550 C.3   135  LEU135      0.1561
    217  C        117.4620  -64.5340   61.5150 C.2   135  LEU135      0.2260
    218  O        117.0920  -65.6770   61.2460 O.2   135  LEU135     -0.2867
    219  CB       115.4400  -63.1160   61.1490 C.3   135  LEU135      0.0270
    220  CG       115.3690  -62.5840   62.5810 C.3   135  LEU135      0.0019
    221  CD1      115.3790  -61.0540   62.5600 C.3   135  LEU135      0.0001
    222  CD2      114.0770  -63.0730   63.2400 C.3   135  LEU135      0.0001
    223  N        118.0440  -66.6170   65.1270 N.3   137  VAL137     -0.1245
    224  CA       117.3900  -66.8030   66.4160 C.3   137  VAL137      0.1561
    225  C        117.9230  -68.0470   67.1190 C.2   137  VAL137      0.2260
    226  O        118.3080  -69.0220   66.4720 O.2   137  VAL137     -0.2867
    227  CB       115.8780  -66.9380   66.2190 C.3   137  VAL137      0.0252
    228  CG1      115.5680  -68.2790   65.5540 C.3   137  VAL137      0.0019
    229  CG2      115.1810  -66.8710   67.5800 C.3   137  VAL137      0.0019
    230  N        117.2960  -70.6650   70.7540 N.3   139  HIS139     -0.1241
    231  CA       116.4430  -71.0230   71.8810 C.3   139  HIS139      0.1621
    232  C        117.0140  -72.2220   72.6330 C.2   139  HIS139      0.2264
    233  O        117.5570  -73.1460   72.0280 O.2   139  HIS139     -0.2867
    234  CB       115.0340  -71.3550   71.3830 C.3   139  HIS139      0.0745
    235  CG       114.3920  -70.1100   70.8340 C.ar  139  HIS139      0.0817
    236  ND1      113.7550  -69.1860   71.6480 N.ar  139  HIS139     -0.2268
    237  CD2      114.2810  -69.6230   69.5550 C.ar  139  HIS139      0.1154
    238  CE1      113.2940  -68.1990   70.8580 C.ar  139  HIS139      0.1986
    239  NE2      113.5880  -68.4160   69.5730 N.ar  139  HIS139     -0.2212
@<TRIPOS>BOND
     1    25    24    2
     2    24    23    1
     3    22    23    1
     4    23    26    1
     5    32    31    2
     6    21    20    1
     7    12    13    2
     8    12    11    1
     9    29    30    1
    10    20    19   ar
    11    20    18   ar
    12    31    30    1
    13    19    17   ar
    14    18    16   ar
    15    26    28    1
    16    26    27    1
    17    30    33    1
    18    11    10    1
    19    11    14    1
    20    17    15   ar
    21    16    15   ar
    22   215   216    1
    23    15    14    1
    24    40    41    1
    25    33    34    1
    26    35    34   ar
    27    35    37   ar
    28   216   219    1
    29   216   217    1
    30    41    42    1
    31    34    36   ar
    32    63    62    2
    33   219   220    1
    34    37    39   ar
    35   218   217    2
    36    55    54    2
    37    50    49   ar
    38    51    49   ar
    39    42    44   am
    40    42    43    2
    41    49    48    1
    42    44    45    1
    43    36    38   ar
    44    62    61    1
    45     3     2    1
    46     3     4    2
    47   221   220    1
    48    39    38   ar
    49   220   222    1
    50    54    60   am
    51    54    53    1
    52     5     2    1
    53     5     6    1
    54     2     1    1
    55    84    83    2
    56    61    60    1
    57    61    64    1
    58    48    45    1
    59    52    53    1
    60    52    46   am
    61    45    46    1
    62    83    82    1
    63    56    53    1
    64    56    58    1
    65    56    57    1
    66    60    66    1
    67    85    82    1
    68    85    86    1
    69     6     7    1
    70     7     8    1
    71    59    57    1
    72    46    47    2
    73    64    65    1
    74    67    68    1
    75    82    81    1
    76    86    88   ar
    77    86    87   ar
    78    88    90   ar
    79     8     9    1
    80   223   224    1
    81    66    65    1
    82    68    69    1
    83    68    71    1
    84    87    89   ar
    85   228   227    1
    86    90    91   ar
    87   191   190    1
    88    78    79    2
    89    78    77    1
    90    69    76   am
    91    69    70    2
    92    76    77    1
    93   227   224    1
    94   227   229    1
    95   224   225    1
    96    89    91   ar
    97    71    72    1
    98   226   225    2
    99    77    80    1
   100    72    73    1
   101   190   188   ar
   102   190   189   ar
   103   214   212    1
   104    97    98    1
   105    97    96    1
   106   188   186   ar
   107    98    99    1
   108   189   187   ar
   109    73    75   ar
   110    73    74   ar
   111   210   209    1
   112   210   211    2
   113    99   100    2
   114    96    93    1
   115   212   209    1
   116   212   213    1
   117   209   208    1
   118   207   206    1
   119   186   185   ar
   120   100   101    1
   121   100   102    1
   122   187   185   ar
   123   137   136    1
   124   237   239   ar
   125   237   235   ar
   126   239   238   ar
   127    92    93    1
   128   206   205    1
   129   185   184    1
   130    93    94    1
   131   136   133    1
   132   169   168    1
   133   230   231    1
   134    95    94    2
   135   235   234    1
   136   235   236   ar
   137   238   236   ar
   138   205   204    1
   139    94   103   am
   140   184   181    1
   141   168   165    1
   142   133   134    1
   143   133   132    1
   144   163   161   ar
   145   234   231    1
   146   162   161   ar
   147   231   232    1
   148   233   232    2
   149   167   166    2
   150   161   160    1
   151   181   182    1
   152   181   180    1
   153   134   135    2
   154   132   126   am
   155   204   201    1
   156   103   104    1
   157   154   153    1
   158   183   182    2
   159   198   197    1
   160   144   145    1
   161   144   143    1
   162   166   165    1
   163   166   170   am
   164   165   164    1
   165   182   192   am
   166   174   171    1
   167   174   175    1
   168   171   170    1
   169   171   172    1
   170   117   115    1
   171   126   127    2
   172   126   125    1
   173   201   200    1
   174   201   202    1
   175   145   146    2
   176   143   142    1
   177   192   193    1
   178   155   153    1
   179   104   107    1
   180   104   105    1
   181   197   199    1
   182   197   196    1
   183   160   157    1
   184   142   139    1
   185   153   150    1
   186   115   114    1
   187   130   128    1
   188   193   196    1
   189   193   194    1
   190   125   128    1
   191   125   124    1
   192   175   176   ar
   193   175   177   ar
   194   173   172    2
   195   123   122    1
   196   121   120    2
   197   203   202    2
   198   146   147    1
   199   146   148    1
   200   156   157    1
   201   156   151   am
   202   107   108    1
   203   107   109    1
   204   176   178   ar
   205   105   110   am
   206   105   106    2
   207   150   151    1
   208   150   149    1
   209   128   129    1
   210   159   158    2
   211   110   111    1
   212   195   194    2
   213   157   158    1
   214   114   111    1
   215   114   116    1
   216   141   140    2
   217   124   120   am
   218   120   119    1
   219   151   152    2
   220   139   140    1
   221   139   138    1
   222   177   179   ar
   223   111   112    1
   224   122   119    1
   225   178   179   ar
   226   129   131    1
   227   119   118    1
   228   112   113    2
