@<TRIPOS>MOLECULE
tmp/2lbaA00.pdb
 182 173 0 0 0
SMALL
GASTEIGER

@<TRIPOS>ATOM
      1  N         10.4310   -0.7560   -8.0380 N.3    14  TYR14      -0.1241
      2  CA        10.6440   -0.6920   -6.5940 C.3    14  TYR14       0.1605
      3  C         11.8040    0.2440   -6.2440 C.2    14  TYR14       0.2264
      4  O         11.6220    1.2270   -5.5240 O.2    14  TYR14      -0.2867
      5  CB        10.9090   -2.0900   -6.0100 C.3    14  TYR14       0.0534
      6  CG        10.8780   -2.1210   -4.4910 C.ar   14  TYR14      -0.0201
      7  CD1       11.8910   -1.5270   -3.7470 C.ar   14  TYR14      -0.0009
      8  CD2        9.8230   -2.7120   -3.8020 C.ar   14  TYR14      -0.0009
      9  CE1       11.8570   -1.5210   -2.3700 C.ar   14  TYR14       0.0417
     10  CE2        9.7810   -2.7010   -2.4180 C.ar   14  TYR14       0.0417
     11  CZ        10.8010   -2.1020   -1.7130 C.ar   14  TYR14       0.1957
     12  OH        10.7570   -2.0680   -0.3440 O.3    14  TYR14      -0.2866
     13  N         11.3080    3.8820   -7.2470 N.3    17  PHE17      -0.1227
     14  CA        10.3930    4.5530   -6.3450 C.3    17  PHE17       0.1736
     15  C         11.0970    4.9560   -5.0540 C.2    17  PHE17       0.2595
     16  O         11.0730    6.1260   -4.6620 O.2    17  PHE17      -0.2718
     17  CB         9.2240    3.6280   -6.0300 C.3    17  PHE17       0.0547
     18  CG         8.1340    4.2730   -5.2250 C.ar   17  PHE17      -0.0202
     19  CD1        7.2380    5.1440   -5.8270 C.ar   17  PHE17      -0.0042
     20  CD2        7.9990    4.0030   -3.8720 C.ar   17  PHE17      -0.0042
     21  CE1        6.2310    5.7320   -5.0940 C.ar   17  PHE17      -0.0003
     22  CE2        6.9900    4.5910   -3.1360 C.ar   17  PHE17      -0.0003
     23  CZ         6.1060    5.4550   -3.7490 C.ar   17  PHE17      -0.0000
     24  N         11.7480    3.9870   -4.4140 N.am   18  VAL18      -0.1980
     25  CA        12.4440    4.2350   -3.1570 C.3    18  VAL18       0.1595
     26  C         13.5580    5.2690   -3.3290 C.2    18  VAL18       0.2287
     27  O         13.7930    6.0840   -2.4350 O.2    18  VAL18      -0.2864
     28  CB        13.0060    2.9340   -2.5420 C.3    18  VAL18       0.0276
     29  CG1       11.8740    1.9740   -2.2190 C.3    18  VAL18       0.0022
     30  CG2       14.0170    2.2770   -3.4660 C.3    18  VAL18       0.0022
     31  N         11.5950    8.7740   -3.6090 N.3    21  ILE21      -0.1245
     32  CA        10.9800    9.2050   -2.3530 C.3    21  ILE21       0.1561
     33  C         12.0380    9.4400   -1.2760 C.2    21  ILE21       0.2260
     34  O         11.7410    9.9630   -0.2000 O.2    21  ILE21      -0.2867
     35  CB         9.9400    8.1900   -1.8340 C.3    21  ILE21       0.0252
     36  CG1       10.5840    6.8210   -1.6370 C.3    21  ILE21       0.0019
     37  CG2        8.7630    8.0990   -2.7960 C.3    21  ILE21       0.0019
     38  CD1        9.7590    5.8760   -0.7900 C.3    21  ILE21       0.0001
     39  N         13.8920    7.0480    0.2770 N.3    23  LEU23      -0.1245
     40  CA        13.7970    6.0330    1.3140 C.3    23  LEU23       0.1561
     41  C         15.1980    5.6090    1.7460 C.2    23  LEU23       0.2260
     42  O         16.0690    5.4000    0.9050 O.2    23  LEU23      -0.2867
     43  CB        13.0100    4.8290    0.7850 C.3    23  LEU23       0.0270
     44  CG        12.4710    3.8640    1.8480 C.3    23  LEU23       0.0019
     45  CD1       11.4370    4.5410    2.7300 C.3    23  LEU23       0.0001
     46  CD2       11.8560    2.6490    1.1880 C.3    23  LEU23       0.0001
     47  N         15.8580    0.8730    5.4640 N.3    27  LYS27      -0.1231
     48  CA        14.4550    0.4800    5.3810 C.3    27  LYS27       0.1693
     49  C         14.1440   -0.1710    4.0410 C.2    27  LYS27       0.2591
     50  O         13.3050   -1.0630    3.9580 O.2    27  LYS27      -0.2718
     51  CB        13.5430    1.6920    5.5830 C.3    27  LYS27       0.0285
     52  CG        13.6650    2.3450    6.9540 C.3    27  LYS27       0.0035
     53  CD        13.2500    1.3970    8.0680 C.3    27  LYS27       0.0206
     54  CE        13.2440    2.0940    9.4260 C.3    27  LYS27       0.1093
     55  NZ        13.0500    1.1410   10.5530 N.3    27  LYS27      -0.1314
     56  N         14.8300    0.2870    3.0030 N.am   28  ILE28      -0.1980
     57  CA        14.6280   -0.2190    1.6490 C.3    28  ILE28       0.1595
     58  C         14.8370   -1.7310    1.5690 C.2    28  ILE28       0.2287
     59  O         13.9120   -2.4810    1.2620 O.2    28  ILE28      -0.2864
     60  CB        15.5900    0.4600    0.6460 C.3    28  ILE28       0.0276
     61  CG1       15.2260    1.9310    0.4390 C.3    28  ILE28       0.0022
     62  CG2       15.5790   -0.2770   -0.6870 C.3    28  ILE28       0.0022
     63  CD1       16.1970    2.6710   -0.4570 C.3    28  ILE28       0.0001
     64  N         15.1810   -3.6780    3.8880 N.3    30  MET30      -0.1230
     65  CA        14.4420   -4.3000    4.9690 C.3    30  MET30       0.1702
     66  C         13.0350   -4.6400    4.4970 C.2    30  MET30       0.2592
     67  O         12.5220   -5.7260    4.7530 O.2    30  MET30      -0.2718
     68  CB        14.3790   -3.3550    6.1690 C.3    30  MET30       0.0401
     69  CG        13.5960   -3.9040    7.3480 C.3    30  MET30       0.0596
     70  SD        14.4580   -5.2180    8.2250 S.3    30  MET30      -0.1393
     71  CE        13.4870   -6.6340    7.7270 C.3    30  MET30       0.0692
     72  N         12.4320   -3.7080    3.7690 N.am   31  GLY31      -0.1957
     73  CA        11.0800   -3.8950    3.2830 C.3    31  GLY31       0.1869
     74  C         11.0030   -4.3250    1.8310 C.2    31  GLY31       0.2309
     75  O         10.0310   -4.0040    1.1440 O.2    31  GLY31      -0.2863
     76  N          4.8270   -9.5060    2.5520 N.3    36  ILE36      -0.1245
     77  CA         3.8940   -8.5780    3.1730 C.3    36  ILE36       0.1561
     78  C          2.4710   -9.0980    3.0120 C.2    36  ILE36       0.2260
     79  O          2.0260   -9.3580    1.8930 O.2    36  ILE36      -0.2867
     80  CB         3.9730   -7.1700    2.5410 C.3    36  ILE36       0.0252
     81  CG1        5.4140   -6.6560    2.5180 C.3    36  ILE36       0.0019
     82  CG2        3.0760   -6.1990    3.2990 C.3    36  ILE36       0.0019
     83  CD1        6.0480   -6.5650    3.8820 C.3    36  ILE36       0.0001
     84  N         -1.2080   -4.2260    6.9210 N.3    51  GLN51      -0.1245
     85  CA         0.0740   -4.6380    6.3770 C.3    51  GLN51       0.1566
     86  C          0.8730   -5.3590    7.4460 C.2    51  GLN51       0.2260
     87  O          1.2340   -4.7660    8.4620 O.2    51  GLN51      -0.2867
     88  CB         0.8780   -3.4270    5.8910 C.3    51  GLN51       0.0367
     89  CG         0.5610   -2.9770    4.4740 C.3    51  GLN51       0.0905
     90  CD        -0.8080   -2.3400    4.3490 C.2    51  GLN51       0.2608
     91  OE1       -0.9930   -1.1690    4.6790 O.2    51  GLN51      -0.2717
     92  NE2       -1.7740   -3.0990    3.8570 N.am   51  GLN51      -0.0878
     93  N          4.2850   -7.3250    8.5860 N.3    53  PHE53      -0.1241
     94  CA         5.6950   -7.4060    8.2740 C.3    53  PHE53       0.1605
     95  C          6.3210   -8.5900    8.9960 C.2    53  PHE53       0.2264
     96  O          6.2880   -8.6520   10.2250 O.2    53  PHE53      -0.2867
     97  CB         6.4000   -6.1140    8.6870 C.3    53  PHE53       0.0534
     98  CG         7.6730   -5.8710    7.9380 C.ar   53  PHE53      -0.0203
     99  CD1        7.7120   -6.0040    6.5650 C.ar   53  PHE53      -0.0042
    100  CD2        8.8300   -5.5230    8.6070 C.ar   53  PHE53      -0.0042
    101  CE1        8.8860   -5.7910    5.8680 C.ar   53  PHE53      -0.0003
    102  CE2       10.0070   -5.3110    7.9190 C.ar   53  PHE53      -0.0003
    103  CZ        10.0350   -5.4450    6.5460 C.ar   53  PHE53      -0.0000
    104  N          8.8080   -8.1250   11.9520 N.3    56  GLY56      -0.1210
    105  CA         8.9630   -6.6960   12.1380 C.3    56  GLY56       0.1956
    106  C          7.6920   -6.0170   12.6080 C.2    56  GLY56       0.2611
    107  O          6.7470   -6.6840   13.0250 O.2    56  GLY56      -0.2717
    108  N          7.6720   -4.6940   12.5150 N.am   57  ARG57      -0.1979
    109  CA         6.5250   -3.9010   12.9510 C.3    57  ARG57       0.1597
    110  C          5.3670   -4.0080   11.9610 C.2    57  ARG57       0.2287
    111  O          5.5740   -4.1090   10.7560 O.2    57  ARG57      -0.2864
    112  CB         6.9380   -2.4310   13.1540 C.3    57  ARG57       0.0334
    113  CG         7.3910   -1.7190   11.8820 C.3    57  ARG57       0.0492
    114  CD         6.2640   -0.9030   11.2620 C.3    57  ARG57       0.2205
    115  NE         6.4510    0.5370   11.4480 N.pl3  57  ARG57      -0.0865
    116  CZ         5.4720    1.3910   11.7700 C.cat  57  ARG57       0.5346
    117  NH1        4.2320    0.9550   11.9730 N.pl3  57  ARG57       0.1354
    118  NH2        5.7320    2.6870   11.8890 N.pl3  57  ARG57       0.1354
    119  N          2.4860    5.0490    7.8600 N.3    73  THR73      -0.1203
    120  CA         3.3390    4.2380    7.0170 C.3    73  THR73       0.1994
    121  C          4.2580    3.3790    7.8670 C.2    73  THR73       0.2618
    122  O          4.2830    3.5020    9.0920 O.2    73  THR73      -0.2717
    123  CB         4.1890    5.1080    6.0820 C.3    73  THR73       0.1784
    124  OG1        5.1650    5.8210    6.8490 O.3    73  THR73      -0.2211
    125  CG2        3.3150    6.0920    5.3250 C.3    73  THR73       0.0376
    126  N          5.0320    2.5310    7.2170 N.am   74  MET74      -0.1965
    127  CA         5.9450    1.6600    7.9270 C.3    74  MET74       0.1736
    128  C          7.1840    2.4320    8.3700 C.2    74  MET74       0.2617
    129  O          7.9290    1.9800    9.2400 O.2    74  MET74      -0.2715
    130  CB         6.3620    0.4810    7.0510 C.3    74  MET74       0.0427
    131  CG         5.3310   -0.6310    6.9630 C.3    74  MET74       0.0599
    132  SD         5.9440   -2.0650    6.0560 S.3    74  MET74      -0.1393
    133  CE         4.7020   -3.2810    6.4840 C.3    74  MET74       0.0692
    134  N          7.4020    3.5930    7.7580 N.am   75  GLY75      -0.1955
    135  CA         8.5440    4.4100    8.1000 C.3    75  GLY75       0.1869
    136  C          8.2840    5.2750    9.3190 C.2    75  GLY75       0.2309
    137  O          9.1830    5.9560    9.8060 O.2    75  GLY75      -0.2863
    138  N          2.0010   12.1760   -4.7120 N.3    97  TYR97      -0.1241
    139  CA         1.8430   10.7520   -4.4640 C.3    97  TYR97       0.1605
    140  C          0.4280   10.3220   -4.8400 C.2    97  TYR97       0.2264
    141  O         -0.5530   10.8690   -4.3440 O.2    97  TYR97      -0.2867
    142  CB         2.1290   10.4470   -2.9880 C.3    97  TYR97       0.0534
    143  CG         2.4890    9.0040   -2.7010 C.ar   97  TYR97      -0.0201
    144  CD1        1.5800    7.9740   -2.9220 C.ar   97  TYR97      -0.0009
    145  CD2        3.7450    8.6720   -2.2000 C.ar   97  TYR97      -0.0009
    146  CE1        1.9120    6.6600   -2.6550 C.ar   97  TYR97       0.0417
    147  CE2        4.0810    7.3590   -1.9320 C.ar   97  TYR97       0.0417
    148  CZ         3.1600    6.3570   -2.1610 C.ar   97  TYR97       0.1957
    149  OH         3.4870    5.0480   -1.8970 O.3    97  TYR97      -0.2866
    150  N         -1.9040    6.9060   -5.1140 N.3    99  HIS99      -0.1241
    151  CA        -2.0410    5.4780   -4.8460 C.3    99  HIS99       0.1621
    152  C         -3.3980    4.9670   -5.3160 C.2    99  HIS99       0.2264
    153  O         -4.4360    5.5030   -4.9290 O.2    99  HIS99      -0.2867
    154  CB        -1.8730    5.2090   -3.3460 C.3    99  HIS99       0.0745
    155  CG        -1.5830    3.7750   -3.0030 C.ar   99  HIS99       0.0817
    156  ND1       -0.3090    3.3580   -2.7050 N.ar   99  HIS99      -0.2268
    157  CD2       -2.4270    2.7160   -2.9060 C.ar   99  HIS99       0.1154
    158  CE1       -0.4050    2.0670   -2.4270 C.ar   99  HIS99       0.1986
    159  NE2       -1.6680    1.6340   -2.5360 N.ar   99  HIS99      -0.2212
    160  N          5.1940    3.1550   -9.0700 N.3   119  TYR119     -0.1241
    161  CA         5.4850    1.9220   -8.3530 C.3   119  TYR119      0.1605
    162  C          4.2730    1.0030   -8.3710 C.2   119  TYR119      0.2264
    163  O          3.1630    1.4250   -8.0580 O.2   119  TYR119     -0.2867
    164  CB         5.8950    2.2360   -6.9090 C.3   119  TYR119      0.0534
    165  CG         5.8860    1.0470   -5.9650 C.ar  119  TYR119     -0.0201
    166  CD1        6.6590   -0.0850   -6.2170 C.ar  119  TYR119     -0.0009
    167  CD2        5.1070    1.0620   -4.8140 C.ar  119  TYR119     -0.0009
    168  CE1        6.6470   -1.1630   -5.3520 C.ar  119  TYR119      0.0417
    169  CE2        5.0920   -0.0130   -3.9450 C.ar  119  TYR119      0.0417
    170  CZ         5.8630   -1.1240   -4.2200 C.ar  119  TYR119      0.1957
    171  OH         5.8480   -2.2000   -3.3580 O.3   119  TYR119     -0.2866
    172  N          2.7580   -2.9880   -7.3270 N.3   121  ARG121     -0.1245
    173  CA         2.9430   -4.1560   -6.4870 C.3   121  ARG121      0.1563
    174  C          1.7570   -5.0900   -6.6400 C.2   121  ARG121      0.2260
    175  O          0.6230   -4.7300   -6.3180 O.2   121  ARG121     -0.2867
    176  CB         3.1140   -3.7480   -5.0180 C.3   121  ARG121      0.0307
    177  CG         2.4060   -2.4500   -4.6600 C.3   121  ARG121      0.0489
    178  CD         1.9670   -2.4240   -3.2090 C.3   121  ARG121      0.2205
    179  NE         3.0630   -2.7110   -2.2890 N.pl3 121  ARG121     -0.0865
    180  CZ         2.8820   -3.0350   -1.0110 C.cat 121  ARG121      0.5346
    181  NH1        1.6520   -3.0790   -0.5000 N.pl3 121  ARG121      0.1354
    182  NH2        3.9350   -3.2850   -0.2400 N.pl3 121  ARG121      0.1354
@<TRIPOS>BOND
     1   160   161    1
     2   162   161    1
     3   162   163    2
     4   161   164    1
     5     1     2    1
     6   172   173    1
     7    13    14    1
     8   164   165    1
     9   174   173    1
    10   174   175    2
    11     2     3    1
    12     2     5    1
    13   173   176    1
    14    14    17    1
    15    14    15    1
    16     3     4    2
    17   166   165   ar
    18   166   168   ar
    19    17    18    1
    20     5     6    1
    21   165   167   ar
    22    19    18   ar
    23    19    21   ar
    24   168   170   ar
    25   152   153    2
    26   152   151    1
    27    18    20   ar
    28   150   151    1
    29    21    23   ar
    30    15    16    2
    31    15    24   am
    32   176   177    1
    33   151   154    1
    34   140   139    1
    35   140   141    2
    36   167   169   ar
    37   138   139    1
    38   177   178    1
    39     6     8   ar
    40     6     7   ar
    41   139   142    1
    42    24    25    1
    43   170   169   ar
    44   170   171    1
    45    20    22   ar
    46     8    10   ar
    47    23    22   ar
    48     7     9   ar
    49    31    32    1
    50    30    28    1
    51   154   155    1
    52    26    25    1
    53    26    27    2
    54   178   179    1
    55    25    28    1
    56   155   157   ar
    57   155   156   ar
    58   142   143    1
    59   144   143   ar
    60   144   146   ar
    61   157   159   ar
    62    37    35    1
    63   156   158   ar
    64   143   145   ar
    65   146   148   ar
    66    28    29    1
    67   159   158   ar
    68    10    11   ar
    69     9    11   ar
    70    32    35    1
    71    32    33    1
    72   179   180    2
    73   145   147   ar
    74   148   147   ar
    75   148   149    1
    76    35    36    1
    77    11    12    1
    78    36    38    1
    79    33    34    2
    80   180   181    1
    81   180   182    1
    82    62    60    1
    83    63    61    1
    84    39    40    1
    85    61    60    1
    86    60    57    1
    87    43    40    1
    88    43    44    1
    89    42    41    2
    90    75    74    2
    91    46    44    1
    92    59    58    2
    93    40    41    1
    94    58    57    1
    95    57    56    1
    96    74    73    1
    97    44    45    1
    98    79    78    2
    99    81    80    1
   100    81    83    1
   101    80    77    1
   102    80    82    1
   103    76    77    1
   104    56    49   am
   105    78    77    1
   106    73    72    1
   107    72    66   am
   108    92    90   am
   109    64    65    1
   110    50    49    2
   111    49    48    1
   112    90    89    1
   113    90    91    2
   114    89    88    1
   115    66    67    2
   116    66    65    1
   117    65    68    1
   118   125   123    1
   119    48    47    1
   120    48    51    1
   121    51    52    1
   122   101   103   ar
   123   101    99   ar
   124    88    85    1
   125   132   133    1
   126   132   131    1
   127   123   124    1
   128   123   120    1
   129    68    69    1
   130    85    84    1
   131    85    86    1
   132   103   102   ar
   133    99    98   ar
   134    52    53    1
   135   131   130    1
   136   120   119    1
   137   120   121    1
   138   130   127    1
   139   126   121   am
   140   126   127    1
   141    69    70    1
   142    86    87    2
   143    71    70    1
   144   134   135    1
   145   134   128   am
   146   121   122    2
   147   102   100   ar
   148   127   128    1
   149    98   100   ar
   150    98    97    1
   151    53    54    1
   152   135   136    1
   153    94    93    1
   154    94    97    1
   155    94    95    1
   156   128   129    2
   157    95    96    2
   158   136   137    2
   159    54    55    1
   160   111   110    2
   161   114   115    1
   162   114   113    1
   163   115   116    2
   164   116   118    1
   165   116   117    1
   166   113   112    1
   167   104   105    1
   168   110   109    1
   169   105   106    1
   170   108   106   am
   171   108   109    1
   172   106   107    2
   173   109   112    1
