@<TRIPOS>MOLECULE
tmp/2lbaA01.pdb
 194 184 0 0 0
SMALL
GASTEIGER

@<TRIPOS>ATOM
      1  N         11.3080    3.8820   -7.2470 N.3    17  PHE17      -0.1241
      2  CA        10.3930    4.5530   -6.3450 C.3    17  PHE17       0.1605
      3  C         11.0970    4.9560   -5.0540 C.2    17  PHE17       0.2264
      4  O         11.0730    6.1260   -4.6620 O.2    17  PHE17      -0.2867
      5  CB         9.2240    3.6280   -6.0300 C.3    17  PHE17       0.0534
      6  CG         8.1340    4.2730   -5.2250 C.ar   17  PHE17      -0.0203
      7  CD1        7.2380    5.1440   -5.8270 C.ar   17  PHE17      -0.0042
      8  CD2        7.9990    4.0030   -3.8720 C.ar   17  PHE17      -0.0042
      9  CE1        6.2310    5.7320   -5.0940 C.ar   17  PHE17      -0.0003
     10  CE2        6.9900    4.5910   -3.1360 C.ar   17  PHE17      -0.0003
     11  CZ         6.1060    5.4550   -3.7490 C.ar   17  PHE17      -0.0000
     12  N         11.5950    8.7740   -3.6090 N.3    21  ILE21      -0.1245
     13  CA        10.9800    9.2050   -2.3530 C.3    21  ILE21       0.1561
     14  C         12.0380    9.4400   -1.2760 C.2    21  ILE21       0.2260
     15  O         11.7410    9.9630   -0.2000 O.2    21  ILE21      -0.2867
     16  CB         9.9400    8.1900   -1.8340 C.3    21  ILE21       0.0252
     17  CG1       10.5840    6.8210   -1.6370 C.3    21  ILE21       0.0019
     18  CG2        8.7630    8.0990   -2.7960 C.3    21  ILE21       0.0019
     19  CD1        9.7590    5.8760   -0.7900 C.3    21  ILE21       0.0001
     20  N         13.8920    7.0480    0.2770 N.3    23  LEU23      -0.1245
     21  CA        13.7970    6.0330    1.3140 C.3    23  LEU23       0.1561
     22  C         15.1980    5.6090    1.7460 C.2    23  LEU23       0.2260
     23  O         16.0690    5.4000    0.9050 O.2    23  LEU23      -0.2867
     24  CB        13.0100    4.8290    0.7850 C.3    23  LEU23       0.0270
     25  CG        12.4710    3.8640    1.8480 C.3    23  LEU23       0.0019
     26  CD1       11.4370    4.5410    2.7300 C.3    23  LEU23       0.0001
     27  CD2       11.8560    2.6490    1.1880 C.3    23  LEU23       0.0001
     28  N         -6.9890   -1.7980    5.5420 N.3    49  TRP49      -0.1241
     29  CA        -5.7300   -2.1430    4.9160 C.3    49  TRP49       0.1605
     30  C         -4.7260   -2.5190    5.9940 C.2    49  TRP49       0.2264
     31  O         -4.1420   -1.6520    6.6460 O.2    49  TRP49      -0.2867
     32  CB        -5.2000   -0.9780    4.0770 C.3    49  TRP49       0.0550
     33  CG        -4.8750   -1.3500    2.6610 C.ar   49  TRP49       0.0003
     34  CD1       -3.6540   -1.2670    2.0540 C.ar   49  TRP49       0.0946
     35  CD2       -5.7790   -1.8490    1.6700 C.ar   49  TRP49       0.0152
     36  NE1       -3.7440   -1.6840    0.7480 N.ar   49  TRP49      -0.2442
     37  CE2       -5.0390   -2.0470    0.4880 C.ar   49  TRP49       0.0810
     38  CE3       -7.1440   -2.1450    1.6690 C.ar   49  TRP49       0.0012
     39  CZ2       -5.6210   -2.5320   -0.6810 C.ar   49  TRP49       0.0191
     40  CZ3       -7.7200   -2.6260    0.5070 C.ar   49  TRP49       0.0001
     41  CH2       -6.9590   -2.8180   -0.6520 C.ar   49  TRP49       0.0015
     42  N         -1.2080   -4.2260    6.9210 N.3    51  GLN51      -0.1245
     43  CA         0.0740   -4.6380    6.3770 C.3    51  GLN51       0.1566
     44  C          0.8730   -5.3590    7.4460 C.2    51  GLN51       0.2260
     45  O          1.2340   -4.7660    8.4620 O.2    51  GLN51      -0.2867
     46  CB         0.8780   -3.4270    5.8910 C.3    51  GLN51       0.0367
     47  CG         0.5610   -2.9770    4.4740 C.3    51  GLN51       0.0905
     48  CD        -0.8080   -2.3400    4.3490 C.2    51  GLN51       0.2608
     49  OE1       -0.9930   -1.1690    4.6790 O.2    51  GLN51      -0.2717
     50  NE2       -1.7740   -3.0990    3.8570 N.am   51  GLN51      -0.0878
     51  N         -4.2300    0.4250    8.5180 N.3    61  ASN61      -0.1240
     52  CA        -4.9530    1.6570    8.2320 C.3    61  ASN61       0.1653
     53  C         -6.2500    1.3530    7.5240 C.2    61  ASN61       0.2266
     54  O         -6.2570    0.8240    6.4170 O.2    61  ASN61      -0.2867
     55  CB        -4.1240    2.6070    7.3590 C.3    61  ASN61       0.1155
     56  CG        -2.6480    2.6050    7.6930 C.2    61  ASN61       0.2627
     57  OD1       -2.2100    3.2570    8.6370 O.2    61  ASN61      -0.2716
     58  ND2       -1.8660    1.8720    6.9140 N.am   61  ASN61      -0.0877
     59  N         -9.9040    2.6820    5.9050 N.3    63  PHE63      -0.1241
     60  CA       -10.3870    3.8740    5.2260 C.3    63  PHE63       0.1605
     61  C        -11.7860    3.6760    4.6730 C.2    63  PHE63       0.2264
     62  O        -12.1260    2.6060    4.1790 O.2    63  PHE63      -0.2867
     63  CB        -9.4440    4.2670    4.0790 C.3    63  PHE63       0.0534
     64  CG        -9.1820    3.1530    3.1020 C.ar   63  PHE63      -0.0203
     65  CD1      -10.0290    2.9430    2.0260 C.ar   63  PHE63      -0.0042
     66  CD2       -8.1000    2.3090    3.2720 C.ar   63  PHE63      -0.0042
     67  CE1       -9.8030    1.9090    1.1430 C.ar   63  PHE63      -0.0003
     68  CE2       -7.8640    1.2750    2.3900 C.ar   63  PHE63      -0.0003
     69  CZ        -8.7180    1.0720    1.3250 C.ar   63  PHE63      -0.0000
     70  N         -4.0940    7.4870    8.6300 N.3    71  MET71      -0.1230
     71  CA        -3.1290    6.5460    8.0880 C.3    71  MET71       0.1702
     72  C         -1.7440    6.7020    8.6980 C.2    71  MET71       0.2592
     73  O         -1.4180    7.7220    9.3080 O.2    71  MET71      -0.2718
     74  CB        -3.0310    6.7270    6.5830 C.3    71  MET71       0.0401
     75  CG        -4.3660    6.6420    5.8890 C.3    71  MET71       0.0596
     76  SD        -4.3850    7.5420    4.3370 S.3    71  MET71      -0.1393
     77  CE        -6.1450    7.6220    4.0820 C.3    71  MET71       0.0692
     78  N         -0.9430    5.6650    8.5200 N.am   72  GLU72      -0.1966
     79  CA         0.4260    5.6270    8.9950 C.3    72  GLU72       0.1733
     80  C          1.2350    4.7080    8.0870 C.2    72  GLU72       0.2617
     81  O          0.7160    3.7080    7.5830 O.2    72  GLU72      -0.2715
     82  CB         0.4890    5.1280   10.4460 C.3    72  GLU72       0.0429
     83  CG         1.8710    4.6580   10.8750 C.3    72  GLU72       0.1163
     84  CD         1.8700    4.0070   12.2420 C.2    72  GLU72       0.3649
     85  OE1        0.9720    4.3160   13.0540 O.co2  72  GLU72      -0.2457
     86  OE2        2.7730    3.1900   12.5130 O.co2  72  GLU72      -0.2457
     87  N          2.4860    5.0490    7.8600 N.am   73  THR73      -0.1937
     88  CA         3.3390    4.2380    7.0170 C.3    73  THR73       0.2028
     89  C          4.2580    3.3790    7.8670 C.2    73  THR73       0.2642
     90  O          4.2830    3.5020    9.0920 O.2    73  THR73      -0.2714
     91  CB         4.1890    5.1080    6.0820 C.3    73  THR73       0.1808
     92  OG1        5.1650    5.8210    6.8490 O.3    73  THR73      -0.2208
     93  CG2        3.3150    6.0920    5.3250 C.3    73  THR73       0.0379
     94  N          5.0320    2.5310    7.2170 N.am   74  MET74      -0.1962
     95  CA         5.9450    1.6600    7.9270 C.3    74  MET74       0.1736
     96  C          7.1840    2.4320    8.3700 C.2    74  MET74       0.2617
     97  O          7.9290    1.9800    9.2400 O.2    74  MET74      -0.2715
     98  CB         6.3620    0.4810    7.0510 C.3    74  MET74       0.0427
     99  CG         5.3310   -0.6310    6.9630 C.3    74  MET74       0.0599
    100  SD         5.9440   -2.0650    6.0560 S.3    74  MET74      -0.1393
    101  CE         4.7020   -3.2810    6.4840 C.3    74  MET74       0.0692
    102  N          7.4020    3.5930    7.7580 N.am   75  GLY75      -0.1955
    103  CA         8.5440    4.4100    8.1000 C.3    75  GLY75       0.1869
    104  C          8.2840    5.2750    9.3190 C.2    75  GLY75       0.2309
    105  O          9.1830    5.9560    9.8060 O.2    75  GLY75      -0.2863
    106  N          5.1720    7.4320    9.7200 N.3    77  ARG77      -0.1245
    107  CA         4.5450    8.6860    9.3250 C.3    77  ARG77       0.1563
    108  C          3.0870    8.7130    9.7520 C.2    77  ARG77       0.2260
    109  O          2.3140    7.8320    9.3900 O.2    77  ARG77      -0.2867
    110  CB         4.6260    8.8850    7.8110 C.3    77  ARG77       0.0307
    111  CG         6.0090    8.6760    7.2330 C.3    77  ARG77       0.0489
    112  CD         6.0210    8.8950    5.7280 C.3    77  ARG77       0.2205
    113  NE         6.5880   10.1920    5.3670 N.pl3  77  ARG77      -0.0865
    114  CZ         7.8450   10.3660    4.9610 C.cat  77  ARG77       0.5346
    115  NH1        8.6590    9.3280    4.8270 N.pl3  77  ARG77       0.1354
    116  NH2        8.2910   11.5810    4.6820 N.pl3  77  ARG77       0.1354
    117  N         -0.4460   10.5610    9.4900 N.3    79  PHE79      -0.1241
    118  CA        -1.1470   11.5040    8.6240 C.3    79  PHE79       0.1605
    119  C         -2.5720   11.0530    8.3290 C.2    79  PHE79       0.2264
    120  O         -3.0010    9.9830    8.7520 O.2    79  PHE79      -0.2867
    121  CB        -0.3680   11.6300    7.3060 C.3    79  PHE79       0.0534
    122  CG        -0.2640   10.3290    6.5510 C.ar   79  PHE79      -0.0203
    123  CD1        0.7370    9.4170    6.8500 C.ar   79  PHE79      -0.0042
    124  CD2       -1.1780   10.0050    5.5610 C.ar   79  PHE79      -0.0042
    125  CE1        0.8250    8.2150    6.1800 C.ar   79  PHE79      -0.0003
    126  CE2       -1.0960    8.8020    4.8900 C.ar   79  PHE79      -0.0003
    127  CZ        -0.0960    7.9050    5.1990 C.ar   79  PHE79      -0.0000
    128  N         -9.8890    8.9840    0.7390 N.3    83  VAL83      -0.1245
    129  CA        -9.8420    7.9190   -0.2430 C.3    83  VAL83       0.1561
    130  C        -11.1870    7.7780   -0.9290 C.2    83  VAL83       0.2260
    131  O        -12.2210    7.7620   -0.2700 O.2    83  VAL83      -0.2867
    132  CB        -9.4650    6.5770    0.4120 C.3    83  VAL83       0.0252
    133  CG1       -9.3450    5.4960   -0.6390 C.3    83  VAL83       0.0019
    134  CG2       -8.1700    6.7050    1.1900 C.3    83  VAL83       0.0019
    135  N         -9.7600    1.7150   -5.7740 N.3    90  ILE90      -0.1245
    136  CA        -9.5560    2.5690   -4.6180 C.3    90  ILE90       0.1561
    137  C         -8.4270    3.5550   -4.8880 C.2    90  ILE90       0.2260
    138  O         -7.2780    3.1570   -5.0490 O.2    90  ILE90      -0.2867
    139  CB        -9.2270    1.7530   -3.3540 C.3    90  ILE90       0.0252
    140  CG1      -10.1160    0.5040   -3.2680 C.3    90  ILE90       0.0019
    141  CG2       -9.4010    2.6210   -2.1300 C.3    90  ILE90       0.0019
    142  CD1      -10.3230   -0.0330   -1.8580 C.3    90  ILE90       0.0001
    143  N         -6.3640    7.0500   -3.6400 N.3    92  ALA92      -0.1245
    144  CA        -6.0560    7.9480   -2.5450 C.3    92  ALA92       0.1562
    145  C         -5.3230    9.1740   -3.0770 C.2    92  ALA92       0.2260
    146  O         -4.4660    9.0580   -3.9580 O.2    92  ALA92      -0.2867
    147  CB        -5.2180    7.2380   -1.4940 C.3    92  ALA92       0.0290
    148  N         -2.7570   12.2300   -2.5350 N.3    94  PHE94      -0.1241
    149  CA        -1.6150   12.6620   -1.7360 C.3    94  PHE94       0.1605
    150  C         -0.7460   13.6370   -2.5330 C.2    94  PHE94       0.2264
    151  O         -0.7590   13.6230   -3.7670 O.2    94  PHE94      -0.2867
    152  CB        -0.7650   11.4550   -1.3250 C.3    94  PHE94       0.0534
    153  CG        -1.3840   10.5880   -0.2750 C.ar   94  PHE94      -0.0203
    154  CD1       -1.2380   10.8980    1.0640 C.ar   94  PHE94      -0.0042
    155  CD2       -2.1030    9.4580   -0.6250 C.ar   94  PHE94      -0.0042
    156  CE1       -1.7990   10.0990    2.0330 C.ar   94  PHE94      -0.0003
    157  CE2       -2.6660    8.6560    0.3440 C.ar   94  PHE94      -0.0003
    158  CZ        -2.5130    8.9750    1.6720 C.ar   94  PHE94      -0.0000
    159  N          2.0010   12.1760   -4.7120 N.3    97  TYR97      -0.1241
    160  CA         1.8430   10.7520   -4.4640 C.3    97  TYR97       0.1605
    161  C          0.4280   10.3220   -4.8400 C.2    97  TYR97       0.2264
    162  O         -0.5530   10.8690   -4.3440 O.2    97  TYR97      -0.2867
    163  CB         2.1290   10.4470   -2.9880 C.3    97  TYR97       0.0534
    164  CG         2.4890    9.0040   -2.7010 C.ar   97  TYR97      -0.0201
    165  CD1        1.5800    7.9740   -2.9220 C.ar   97  TYR97      -0.0009
    166  CD2        3.7450    8.6720   -2.2000 C.ar   97  TYR97      -0.0009
    167  CE1        1.9120    6.6600   -2.6550 C.ar   97  TYR97       0.0417
    168  CE2        4.0810    7.3590   -1.9320 C.ar   97  TYR97       0.0417
    169  CZ         3.1600    6.3570   -2.1610 C.ar   97  TYR97       0.1957
    170  OH         3.4870    5.0480   -1.8970 O.3    97  TYR97      -0.2866
    171  N         -1.9040    6.9060   -5.1140 N.3    99  HIS99      -0.1241
    172  CA        -2.0410    5.4780   -4.8460 C.3    99  HIS99       0.1621
    173  C         -3.3980    4.9670   -5.3160 C.2    99  HIS99       0.2264
    174  O         -4.4360    5.5030   -4.9290 O.2    99  HIS99      -0.2867
    175  CB        -1.8730    5.2090   -3.3460 C.3    99  HIS99       0.0745
    176  CG        -1.5830    3.7750   -3.0030 C.ar   99  HIS99       0.0817
    177  ND1       -0.3090    3.3580   -2.7050 N.ar   99  HIS99      -0.2268
    178  CD2       -2.4270    2.7160   -2.9060 C.ar   99  HIS99       0.1154
    179  CE1       -0.4050    2.0670   -2.4270 C.ar   99  HIS99       0.1986
    180  NE2       -1.6680    1.6340   -2.5360 N.ar   99  HIS99      -0.2212
    181  N         -5.5810    1.2450   -5.9580 N.3   101  ALA101     -0.1245
    182  CA        -5.6540   -0.1960   -5.7680 C.3   101  ALA101      0.1562
    183  C         -6.7820   -0.7810   -6.6050 C.2   101  ALA101      0.2260
    184  O         -7.8930   -0.2450   -6.6180 O.2   101  ALA101     -0.2867
    185  CB        -5.8630   -0.5240   -4.2970 C.3   101  ALA101      0.0290
    186  N         -1.3820   -2.4690   -6.5090 N.3   110  GLU110     -0.1245
    187  CA        -1.3830   -1.1070   -6.0210 C.3   110  GLU110      0.1567
    188  C         -0.3910   -0.2830   -6.8210 C.2   110  GLU110      0.2260
    189  O          0.7670   -0.6730   -6.9760 O.2   110  GLU110     -0.2867
    190  CB        -1.0300   -1.0560   -4.5350 C.3   110  GLU110      0.0388
    191  CG        -1.9060   -1.9350   -3.6640 C.3   110  GLU110      0.1160
    192  CD        -1.5070   -1.8800   -2.2040 C.2   110  GLU110      0.3649
    193  OE1       -2.0330   -1.0120   -1.4740 O.co2 110  GLU110     -0.2457
    194  OE2       -0.6620   -2.6990   -1.7840 O.co2 110  GLU110     -0.2457
@<TRIPOS>BOND
     1     1     2    1
     2   189   188    2
     3   188   187    1
     4   184   183    2
     5   183   182    1
     6   186   187    1
     7     2     5    1
     8     2     3    1
     9     5     6    1
    10   187   190    1
    11   181   182    1
    12     7     6   ar
    13     7     9   ar
    14   135   136    1
    15   182   185    1
    16   173   174    2
    17   173   172    1
    18     6     8   ar
    19   171   172    1
    20     9    11   ar
    21     3     4    2
    22   138   137    2
    23   137   136    1
    24   172   175    1
    25   161   160    1
    26   161   162    2
    27   159   160    1
    28   136   139    1
    29   190   191    1
    30   160   163    1
    31   146   145    2
    32     8    10   ar
    33   151   150    2
    34    11    10   ar
    35   191   192    1
    36   143   144    1
    37    12    13    1
    38   139   140    1
    39   139   141    1
    40   175   176    1
    41   140   142    1
    42   145   144    1
    43   176   178   ar
    44   176   177   ar
    45   163   164    1
    46   165   164   ar
    47   165   167   ar
    48   178   180   ar
    49    18    16    1
    50   177   179   ar
    51   164   166   ar
    52   167   169   ar
    53   144   147    1
    54   180   179   ar
    55   148   149    1
    56   150   149    1
    57    13    16    1
    58    13    14    1
    59   192   194   ar
    60   192   193   ar
    61   166   168   ar
    62   169   168   ar
    63   169   170    1
    64    16    17    1
    65   149   152    1
    66    17    19    1
    67   152   153    1
    68    14    15    2
    69   130   131    2
    70   130   129    1
    71    39    41   ar
    72    39    37   ar
    73    41    40   ar
    74   133   132    1
    75   155   153   ar
    76   155   157   ar
    77   153   154   ar
    78   129   132    1
    79   129   128    1
    80    20    21    1
    81   157   158   ar
    82   132   134    1
    83    37    36   ar
    84    37    35   ar
    85    40    38   ar
    86    36    34   ar
    87    24    21    1
    88    24    25    1
    89    23    22    2
    90   154   156   ar
    91    67    69   ar
    92    67    65   ar
    93    27    25    1
    94    21    22    1
    95    69    68   ar
    96    38    35   ar
    97    35    33   ar
    98   158   156   ar
    99    25    26    1
   100    65    64   ar
   101    34    33   ar
   102    68    66   ar
   103    33    32    1
   104    64    66   ar
   105    64    63    1
   106    50    48   am
   107    32    29    1
   108    63    60    1
   109    77    76    1
   110    62    61    2
   111    76    75    1
   112    48    47    1
   113    48    49    2
   114    47    46    1
   115    61    60    1
   116   116   114    1
   117   115   114    1
   118   126   127   ar
   119   126   124   ar
   120    29    28    1
   121    29    30    1
   122   114   113    2
   123   127   125   ar
   124    60    59    1
   125    93    91    1
   126   113   112    1
   127   124   122   ar
   128   112   111    1
   129    75    74    1
   130    46    43    1
   131    30    31    2
   132   100   101    1
   133   100    99    1
   134    91    92    1
   135    91    88    1
   136   125   123   ar
   137    43    42    1
   138    43    44    1
   139    54    53    2
   140   122   123   ar
   141   122   121    1
   142    74    71    1
   143    58    56   am
   144    99    98    1
   145    88    87    1
   146    88    89    1
   147    98    95    1
   148    94    89   am
   149    94    95    1
   150   111   110    1
   151   121   118    1
   152    55    56    1
   153    55    52    1
   154    44    45    2
   155    53    52    1
   156    81    80    2
   157    56    57    2
   158   102   103    1
   159   102    96   am
   160   110   107    1
   161    87    80   am
   162    89    90    2
   163    95    96    1
   164    80    79    1
   165    71    70    1
   166    71    72    1
   167   103   104    1
   168    52    51    1
   169   119   118    1
   170   119   120    2
   171    96    97    2
   172    78    72   am
   173    78    79    1
   174   118   117    1
   175    72    73    2
   176    79    82    1
   177   104   105    2
   178   107   106    1
   179   107   108    1
   180   109   108    2
   181    82    83    1
   182    83    84    1
   183    84    86   ar
   184    84    85   ar
