@<TRIPOS>MOLECULE
tmp/2lbvA01.pdb
 206 193 0 0 0
SMALL
GASTEIGER

@<TRIPOS>ATOM
      1  N          3.0470   16.9260  -18.5210 N.3     3  VAL3       -0.1245
      2  CA         2.0340   17.0690  -17.4800 C.3     3  VAL3        0.1561
      3  C          2.5620   17.9330  -16.3370 C.2     3  VAL3        0.2260
      4  O          2.7990   17.4430  -15.2320 O.2     3  VAL3       -0.2867
      5  CB         1.6390   15.6890  -16.9430 C.3     3  VAL3        0.0252
      6  CG1        0.7370   14.9840  -17.9580 C.3     3  VAL3        0.0019
      7  CG2        2.8990   14.8520  -16.7180 C.3     3  VAL3        0.0019
      8  N          1.9030   17.4120  -12.5590 N.3     6  ARG6       -0.1245
      9  CA         2.6450   16.5130  -11.6810 C.3     6  ARG6        0.1563
     10  C          3.7190   17.2790  -10.9150 C.2     6  ARG6        0.2260
     11  O          3.8250   17.1640   -9.6950 O.2     6  ARG6       -0.2867
     12  CB         3.2950   15.3960  -12.5060 C.3     6  ARG6        0.0307
     13  CG         4.1880   14.5170  -11.6050 C.3     6  ARG6        0.0489
     14  CD         5.6650   14.8760  -11.8090 C.3     6  ARG6        0.2205
     15  NE         6.0470   14.6690  -13.2010 N.pl3   6  ARG6       -0.0865
     16  CZ         7.2740   14.9510  -13.6260 C.cat   6  ARG6        0.5346
     17  NH1        8.1610   15.4240  -12.7940 N.pl3   6  ARG6        0.1354
     18  NH2        7.5930   14.7540  -14.8770 N.pl3   6  ARG6        0.1354
     19  N          2.7800   15.6310   -1.0010 N.3    13  TRP13      -0.1241
     20  CA         1.4440   15.0360   -1.1470 C.3    13  TRP13       0.1605
     21  C          0.8690   14.8090    0.2470 C.2    13  TRP13       0.2264
     22  O          1.5460   14.2460    1.1070 O.2    13  TRP13      -0.2867
     23  CB         1.5670   13.6730   -1.8510 C.3    13  TRP13       0.0550
     24  CG         1.9330   13.8540   -3.2610 C.ar   13  TRP13       0.0003
     25  CD1        3.0500   14.4560   -3.7040 C.ar   13  TRP13       0.0946
     26  CD2        1.1990   13.4140   -4.4320 C.ar   13  TRP13       0.0152
     27  NE1        3.0500   14.4000   -5.0740 N.ar   13  TRP13      -0.2442
     28  CE2        1.9460   13.7570   -5.5620 C.ar   13  TRP13       0.0810
     29  CE3       -0.0220   12.7440   -4.6250 C.ar   13  TRP13       0.0012
     30  CZ2        1.5290   13.4600   -6.8380 C.ar   13  TRP13       0.0191
     31  CZ3       -0.4620   12.4410   -5.9250 C.ar   13  TRP13       0.0001
     32  CH2        0.3190   12.7950   -7.0340 C.ar   13  TRP13       0.0015
     33  N         -2.0310   13.2530    2.9030 N.3    15  VAL15      -0.1245
     34  CA        -3.0560   12.2270    3.1100 C.3    15  VAL15       0.1561
     35  C         -3.9080   12.6770    4.2970 C.2    15  VAL15       0.2260
     36  O         -3.3740   12.8800    5.3880 O.2    15  VAL15      -0.2867
     37  CB        -2.3950   10.8700    3.4140 C.3    15  VAL15       0.0252
     38  CG1       -3.3820    9.9480    4.1420 C.3    15  VAL15       0.0019
     39  CG2       -1.9650   10.2030    2.1080 C.3    15  VAL15       0.0019
     40  N          2.2310   13.2510    5.1880 N.3    36  MET36      -0.1230
     41  CA         2.7740   13.9440    4.0140 C.3    36  MET36       0.1702
     42  C          3.6660   13.0070    3.1890 C.2    36  MET36       0.2592
     43  O          4.1310   11.9800    3.6800 O.2    36  MET36      -0.2718
     44  CB         3.5890   15.1790    4.4560 C.3    36  MET36       0.0401
     45  CG         3.6980   15.2390    5.9850 C.3    36  MET36       0.0596
     46  SD         2.1020   15.7260    6.6880 S.3    36  MET36      -0.1393
     47  CE         2.6890   16.0560    8.3670 C.3    36  MET36       0.0692
     48  N          3.8850   13.3750    1.9240 N.am   37  ALA37      -0.1980
     49  CA         4.7150   12.5610    1.0330 C.3    37  ALA37       0.1597
     50  C          5.2680   13.3760   -0.1450 C.2    37  ALA37       0.2287
     51  O          4.7630   14.4440   -0.4640 O.2    37  ALA37      -0.2864
     52  CB         3.8900   11.3780    0.5200 C.3    37  ALA37       0.0319
     53  N          6.6670   12.8510   -4.3190 N.3    39  ILE39      -0.1245
     54  CA         6.7310   11.9350   -5.4620 C.3    39  ILE39       0.1561
     55  C          7.5880   12.5240   -6.5810 C.2    39  ILE39       0.2260
     56  O          7.5970   13.7340   -6.7980 O.2    39  ILE39      -0.2867
     57  CB         5.3080   11.6610   -5.9000 C.3    39  ILE39       0.0252
     58  CG1        5.1900   10.5300   -6.9120 C.3    39  ILE39       0.0019
     59  CG2        4.7180   12.8730   -6.4990 C.3    39  ILE39       0.0019
     60  CD1        3.6990   10.1740   -7.0440 C.3    39  ILE39       0.0001
     61  N          9.2060   11.6710  -10.7710 N.3    41  PHE41      -0.1241
     62  CA         9.0860   10.8580  -11.9780 C.3    41  PHE41       0.1605
     63  C         10.4330   10.3000  -12.4410 C.2    41  PHE41       0.2264
     64  O         11.2670   11.0110  -13.0020 O.2    41  PHE41      -0.2867
     65  CB         8.4610   11.7000  -13.1050 C.3    41  PHE41       0.0534
     66  CG         6.9800   11.4030  -13.2230 C.ar   41  PHE41      -0.0203
     67  CD1        6.1910   11.2970  -12.0710 C.ar   41  PHE41      -0.0042
     68  CD2        6.4000   11.2300  -14.4860 C.ar   41  PHE41      -0.0042
     69  CE1        4.8230   11.0190  -12.1830 C.ar   41  PHE41      -0.0003
     70  CE2        5.0330   10.9520  -14.5980 C.ar   41  PHE41      -0.0003
     71  CZ         4.2450   10.8460  -13.4460 C.ar   41  PHE41      -0.0000
     72  N          8.5240    5.3680  -10.9110 N.3    47  LEU47      -0.1245
     73  CA         8.5240    6.6330  -10.1760 C.3    47  LEU47       0.1561
     74  C          8.9720    6.4210   -8.7360 C.2    47  LEU47       0.2260
     75  O          8.7970    5.3510   -8.1640 O.2    47  LEU47      -0.2867
     76  CB         7.1620    7.3370  -10.2220 C.3    47  LEU47       0.0270
     77  CG         6.0120    6.3850   -9.8780 C.3    47  LEU47       0.0019
     78  CD1        4.7130    7.1870   -9.8550 C.3    47  LEU47       0.0001
     79  CD2        5.9000    5.2600  -10.9250 C.3    47  LEU47       0.0001
     80  N          8.5930    7.5190   -4.8250 N.3    49  VAL49      -0.1231
     81  CA         7.7130    8.2190   -3.8880 C.3    49  VAL49       0.1692
     82  C          8.0530    7.8890   -2.4340 C.2    49  VAL49       0.2593
     83  O          8.4370    6.7700   -2.0910 O.2    49  VAL49      -0.2718
     84  CB         6.2140    8.0160   -4.2570 C.3    49  VAL49       0.0266
     85  CG1        5.5650    6.7980   -3.5920 C.3    49  VAL49       0.0020
     86  CG2        5.4040    9.2460   -3.8480 C.3    49  VAL49       0.0020
     87  N          7.9390    8.9280   -1.6050 N.am   50  SER50      -0.1938
     88  CA         8.2630    8.8430   -0.1760 C.3    50  SER50       0.2055
     89  C          7.0210    8.9740    0.6960 C.2    50  SER50       0.2643
     90  O          6.0780    9.6850    0.3480 O.2    50  SER50      -0.2714
     91  CB         9.2500    9.9520    0.1890 C.3    50  SER50       0.2130
     92  OG        10.5190    9.6580   -0.3820 O.3    50  SER50      -0.2179
     93  N          7.0340    8.2850    1.8410 N.am   51  TYR51      -0.1973
     94  CA         5.9110    8.3230    2.7730 C.3    51  TYR51       0.1639
     95  C          6.3290    8.9960    4.0800 C.2    51  TYR51       0.2290
     96  O          7.3380    8.6180    4.6800 O.2    51  TYR51      -0.2864
     97  CB         5.4830    6.8910    3.1390 C.3    51  TYR51       0.0560
     98  CG         5.0570    6.0770    1.9280 C.ar   51  TYR51      -0.0198
     99  CD1        5.9130    5.9130    0.8260 C.ar   51  TYR51      -0.0009
    100  CD2        3.8010    5.4550    1.9270 C.ar   51  TYR51      -0.0009
    101  CE1        5.5080    5.1340   -0.2650 C.ar   51  TYR51       0.0417
    102  CE2        3.3990    4.6800    0.8340 C.ar   51  TYR51       0.0417
    103  CZ         4.2530    4.5180   -0.2600 C.ar   51  TYR51       0.1957
    104  OH         3.8570    3.7480   -1.3330 O.3    51  TYR51      -0.2866
    105  N          8.9260    2.8160   -7.1500 N.3    66  PHE66      -0.1241
    106  CA         7.8150    2.1450   -7.8270 C.3    66  PHE66       0.1605
    107  C          8.2870    1.6900   -9.2090 C.2    66  PHE66       0.2264
    108  O          8.7590    2.5070   -9.9970 O.2    66  PHE66      -0.2867
    109  CB         6.6760    3.1580   -8.0120 C.3    66  PHE66       0.0534
    110  CG         5.8980    3.4560   -6.7350 C.ar   66  PHE66      -0.0203
    111  CD1        6.2440    2.9030   -5.4860 C.ar   66  PHE66      -0.0042
    112  CD2        4.7980    4.3190   -6.8230 C.ar   66  PHE66      -0.0042
    113  CE1        5.4880    3.2170   -4.3490 C.ar   66  PHE66      -0.0003
    114  CE2        4.0470    4.6280   -5.6860 C.ar   66  PHE66      -0.0003
    115  CZ         4.3890    4.0770   -4.4510 C.ar   66  PHE66      -0.0000
    116  N          2.9470   -4.2040   -3.3480 N.3    83  LYS83      -0.1245
    117  CA         1.9420   -3.1630   -3.1650 C.3    83  LYS83       0.1561
    118  C          1.9020   -2.2380   -4.3740 C.2    83  LYS83       0.2260
    119  O          2.9410   -1.8050   -4.8710 O.2    83  LYS83      -0.2867
    120  CB         2.2600   -2.3450   -1.9110 C.3    83  LYS83       0.0271
    121  CG         1.0560   -1.4680   -1.5500 C.3    83  LYS83       0.0035
    122  CD         1.5090   -0.3150   -0.6500 C.3    83  LYS83       0.0206
    123  CE         2.2070   -0.8720    0.5910 C.3    83  LYS83       0.1093
    124  NZ         1.5080   -2.1050    1.0510 N.3    83  LYS83      -0.1314
    125  N         -0.3130    1.1480   -6.3910 N.3    85  VAL85      -0.1245
    126  CA        -1.2530    2.2530   -6.2560 C.3    85  VAL85       0.1561
    127  C         -1.5820    2.8200   -7.6300 C.2    85  VAL85       0.2260
    128  O         -0.7010    3.0320   -8.4640 O.2    85  VAL85      -0.2867
    129  CB        -0.7280    3.3340   -5.2720 C.3    85  VAL85       0.0252
    130  CG1        0.0430    2.6550   -4.1330 C.3    85  VAL85       0.0019
    131  CG2        0.1780    4.4200   -5.9440 C.3    85  VAL85       0.0019
    132  N         -3.7300    5.7450   -9.8520 N.3    87  VAL87      -0.1245
    133  CA        -4.4090    7.0340   -9.8430 C.3    87  VAL87       0.1561
    134  C         -5.9060    6.8190  -10.0830 C.2    87  VAL87       0.2260
    135  O         -6.3420    6.5950  -11.2110 O.2    87  VAL87      -0.2867
    136  CB        -3.8090    7.9490  -10.9220 C.3    87  VAL87       0.0252
    137  CG1       -3.5250    7.1380  -12.1890 C.3    87  VAL87       0.0019
    138  CG2       -4.7850    9.0880  -11.2490 C.3    87  VAL87       0.0019
    139  N         -8.1690    9.0840   -8.9240 N.3    89  ASP89      -0.1225
    140  CA        -8.7120   10.4280   -9.0630 C.3    89  ASP89       0.1805
    141  C         -7.6650   11.4110   -8.5510 C.2    89  ASP89       0.2598
    142  O         -7.1870   11.2860   -7.4260 O.2    89  ASP89      -0.2718
    143  CB       -10.0170   10.5900   -8.2610 C.3    89  ASP89       0.1424
    144  CG       -11.0140   11.4540   -9.0320 C.2    89  ASP89       0.3668
    145  OD1      -10.8830   12.6670   -8.9780 O.co2  89  ASP89      -0.2456
    146  OD2      -11.8910   10.8900   -9.6640 O.co2  89  ASP89      -0.2456
    147  N         -7.2840   12.3650   -9.3830 N.am   90  THR90      -0.1953
    148  CA        -6.2640   13.3280   -8.9910 C.3    90  THR90       0.1897
    149  C         -6.4770   14.6460   -9.7450 C.2    90  THR90       0.2313
    150  O         -6.6360   14.6580  -10.9660 O.2    90  THR90      -0.2863
    151  CB        -4.8730   12.6970   -9.2710 C.3    90  THR90       0.1794
    152  OG1       -3.9990   12.8420   -8.1500 O.3    90  THR90      -0.2208
    153  CG2       -4.2130   13.3310  -10.4970 C.3    90  THR90       0.0378
    154  N         -5.1760   17.7000   -7.8570 N.3    92  TYR92      -0.1241
    155  CA        -4.2420   18.5290   -7.1150 C.3    92  TYR92       0.1605
    156  C         -4.7940   19.9420   -6.9310 C.2    92  TYR92       0.2264
    157  O         -4.1180   20.8100   -6.3790 O.2    92  TYR92      -0.2867
    158  CB        -2.9090   18.6200   -7.8630 C.3    92  TYR92       0.0534
    159  CG        -2.4810   17.2550   -8.3660 C.ar   92  TYR92      -0.0201
    160  CD1       -2.5540   16.1270   -7.5340 C.ar   92  TYR92      -0.0009
    161  CD2       -1.9930   17.1240   -9.6730 C.ar   92  TYR92      -0.0009
    162  CE1       -2.1410   14.8790   -8.0100 C.ar   92  TYR92       0.0417
    163  CE2       -1.5790   15.8750  -10.1460 C.ar   92  TYR92       0.0417
    164  CZ        -1.6520   14.7530   -9.3140 C.ar   92  TYR92       0.1957
    165  OH        -1.2430   13.5240   -9.7820 O.3    92  TYR92      -0.2866
    166  N         -7.3390   14.6470   -4.2270 N.3    96  ALA96      -0.1245
    167  CA        -7.0440   13.5320   -5.1130 C.3    96  ALA96       0.1562
    168  C         -7.4530   12.2380   -4.4240 C.2    96  ALA96       0.2260
    169  O         -7.2410   12.0760   -3.2210 O.2    96  ALA96      -0.2867
    170  CB        -5.5540   13.4980   -5.4660 C.3    96  ALA96       0.0290
    171  N         -7.1420    8.0080   -4.5700 N.3    98  ILE98      -0.1245
    172  CA        -6.3500    6.9430   -5.1590 C.3    98  ILE98       0.1561
    173  C         -6.7430    5.5660   -4.6310 C.2    98  ILE98       0.2260
    174  O         -7.1470    5.4190   -3.4780 O.2    98  ILE98      -0.2867
    175  CB        -4.9080    7.2330   -4.7850 C.3    98  ILE98       0.0252
    176  CG1       -3.9800    6.1660   -5.3380 C.3    98  ILE98       0.0019
    177  CG2       -4.7740    7.2590   -3.2630 C.3    98  ILE98       0.0019
    178  CD1       -2.5340    6.6050   -5.1020 C.3    98  ILE98       0.0001
    179  N         -5.5360    2.2080   -3.3990 N.3   100  ALA100     -0.1245
    180  CA        -4.3690    1.5110   -2.8590 C.3   100  ALA100      0.1562
    181  C         -4.7360    0.0870   -2.4530 C.2   100  ALA100      0.2260
    182  O         -5.7800   -0.1450   -1.8440 O.2   100  ALA100     -0.2867
    183  CB        -3.8270    2.2700   -1.6460 C.3   100  ALA100      0.0290
    184  N         -7.7800    6.2970   -0.3570 N.3   113  ARG113     -0.1245
    185  CA        -7.0960    7.3740    0.3620 C.3   113  ARG113      0.1563
    186  C         -7.4410    8.7340   -0.2350 C.2   113  ARG113      0.2260
    187  O         -7.3970    8.9210   -1.4500 O.2   113  ARG113     -0.2867
    188  CB        -5.5810    7.1670    0.3090 C.3   113  ARG113      0.0307
    189  CG        -5.1990    5.9410    1.1420 C.3   113  ARG113      0.0489
    190  CD        -3.6810    5.7500    1.1020 C.3   113  ARG113      0.2205
    191  NE        -3.2510    4.8800    2.1900 N.pl3 113  ARG113     -0.0865
    192  CZ        -3.1200    5.3450    3.4290 C.cat 113  ARG113      0.5346
    193  NH1       -3.3890    6.5950    3.6880 N.pl3 113  ARG113      0.1354
    194  NH2       -2.7240    4.5520    4.3870 N.pl3 113  ARG113      0.1354
    195  N         -6.5620   12.7410   -0.4370 N.3   115  TYR115     -0.1241
    196  CA        -5.5030   13.7300   -0.2780 C.3   115  TYR115      0.1605
    197  C         -6.0590   15.1510   -0.3570 C.2   115  TYR115      0.2264
    198  O         -7.1350   15.3830   -0.9100 O.2   115  TYR115     -0.2867
    199  CB        -4.4720   13.5770   -1.4000 C.3   115  TYR115      0.0534
    200  CG        -3.6550   12.3190   -1.2210 C.ar  115  TYR115     -0.0201
    201  CD1       -4.2770   11.0650   -1.2550 C.ar  115  TYR115     -0.0009
    202  CD2       -2.2690   12.4080   -1.0350 C.ar  115  TYR115     -0.0009
    203  CE1       -3.5140    9.9050   -1.1000 C.ar  115  TYR115      0.0417
    204  CE2       -1.5090   11.2470   -0.8820 C.ar  115  TYR115      0.0417
    205  CZ        -2.1310    9.9950   -0.9150 C.ar  115  TYR115      0.1957
    206  OH        -1.3850    8.8520   -0.7470 O.3   115  TYR115     -0.2866
@<TRIPOS>BOND
     1     1     2    1
     2     6     5    1
     3     2     5    1
     4     2     3    1
     5     5     7    1
     6     3     4    2
     7    18    16    1
     8    70    68   ar
     9    70    71   ar
    10    68    66   ar
    11    16    15    2
    12    16    17    1
    13    71    69   ar
    14    66    65    1
    15    66    67   ar
    16    15    14    1
    17    65    62    1
    18    64    63    2
    19     8     9    1
    20    12     9    1
    21    12    13    1
    22    63    62    1
    23   137   136    1
    24    69    67   ar
    25    62    61    1
    26    14    13    1
    27     9    10    1
    28   138   136    1
    29   135   134    2
    30   150   149    2
    31    79    77    1
    32   136   133    1
    33    10    11    2
    34    72    73    1
    35   153   151    1
    36    76    73    1
    37    76    77    1
    38    73    74    1
    39   163   161   ar
    40   163   164   ar
    41   134   133    1
    42   108   107    2
    43    77    78    1
    44   132   133    1
    45   165   164    1
    46   149   148    1
    47   161   159   ar
    48   146   144   ar
    49   147   148    1
    50   147   141   am
    51   164   162   ar
    52   151   148    1
    53   151   152    1
    54   107   106    1
    55   140   139    1
    56   140   141    1
    57   140   143    1
    58   144   145   ar
    59   144   143    1
    60    74    75    2
    61   141   142    2
    62   128   127    2
    63   159   158    1
    64   159   160   ar
    65   109   106    1
    66   109   110    1
    67   162   160   ar
    68   158   155    1
    69   154   155    1
    70   106   105    1
    71   127   126    1
    72   155   156    1
    73    60    58    1
    74    32    30   ar
    75    32    31   ar
    76   156   157    2
    77    58    57    1
    78    30    28   ar
    79   112   110   ar
    80   112   114   ar
    81    56    55    2
    82   110   111   ar
    83    55    54    1
    84    59    57    1
    85   125   126    1
    86   126   129    1
    87   131   129    1
    88    31    29   ar
    89    57    54    1
    90   114   115   ar
    91    28    27   ar
    92    28    26   ar
    93   111   113   ar
    94   170   167    1
    95    54    53    1
    96   176   178    1
    97   176   175    1
    98   129   130    1
    99   172   175    1
   100   172   173    1
   101   172   171    1
   102   167   168    1
   103   167   166    1
   104    27    25   ar
   105   119   118    2
   106    80    81    1
   107   175   177    1
   108   173   174    2
   109    29    26   ar
   110   115   113   ar
   111    26    24   ar
   112   168   169    2
   113   118   117    1
   114    84    81    1
   115    84    86    1
   116    84    85    1
   117    81    82    1
   118    25    24   ar
   119   179   180    1
   120   116   117    1
   121    24    23    1
   122   117   120    1
   123   180   181    1
   124   180   183    1
   125   181   182    2
   126    82    83    2
   127    82    87   am
   128   120   121    1
   129    23    20    1
   130    87    88    1
   131   121   122    1
   132   187   186    2
   133   199   200    1
   134   199   196    1
   135   104   103    1
   136   201   200   ar
   137   201   203   ar
   138   200   202   ar
   139    20    19    1
   140    20    21    1
   141   203   205   ar
   142   202   204   ar
   143   205   204   ar
   144   205   206    1
   145   198   197    2
   146   122   123    1
   147    51    50    2
   148   195   196    1
   149    92    91    1
   150   184   185    1
   151   197   196    1
   152   101   103   ar
   153   101    99   ar
   154   103   102   ar
   155   186   185    1
   156    88    91    1
   157    88    89    1
   158    50    49    1
   159    21    22    2
   160   188   185    1
   161   188   189    1
   162    90    89    2
   163    52    49    1
   164   123   124    1
   165    89    93   am
   166    99    98   ar
   167   102   100   ar
   168    49    48    1
   169   190   189    1
   170   190   191    1
   171    93    94    1
   172    48    42   am
   173   100    98   ar
   174    98    97    1
   175    39    37    1
   176   191   192    2
   177    94    97    1
   178    94    95    1
   179    33    34    1
   180    34    37    1
   181    34    35    1
   182    42    43    2
   183    42    41    1
   184    37    38    1
   185   192   193    1
   186   192   194    1
   187    41    44    1
   188    41    40    1
   189    95    96    2
   190    35    36    2
   191    44    45    1
   192    45    46    1
   193    46    47    1
