@<TRIPOS>MOLECULE
tmp/2lgkA00.pdb
 177 172 0 0 0
SMALL
GASTEIGER

@<TRIPOS>ATOM
      1  N        -12.4340    7.9040   12.9260 N.3     1  SER1       -0.1202
      2  CA       -11.5270    7.3480   11.8810 C.3     1  SER1        0.2020
      3  C        -12.0810    7.6820   10.4950 C.2     1  SER1        0.2619
      4  O        -13.2680    7.5940   10.2540 O.2     1  SER1       -0.2717
      5  CB       -11.4390    5.8280   12.0400 C.3     1  SER1        0.2103
      6  OG       -10.2800    5.3530   11.3690 O.3     1  SER1       -0.2182
      7  N        -11.2260    8.0690    9.5830 N.am    2  GLY2       -0.1942
      8  CA       -11.6970    8.4130    8.2100 C.3     2  GLY2        0.1998
      9  C        -10.8720    7.6420    7.1780 C.2     2  GLY2        0.2481
     10  O         -9.8150    7.1230    7.4780 O.2     2  GLY2       -0.2729
     11  N        -11.3600    7.5700    5.9710 N.am    3  PRO3       -0.2715
     12  CA       -10.6690    6.8560    4.8580 C.3     3  PRO3        0.1536
     13  C         -9.2670    7.4120    4.5950 C.2     3  PRO3        0.2599
     14  O         -9.0080    8.5830    4.7890 O.2     3  PRO3       -0.2715
     15  CB       -11.5720    7.0790    3.6390 C.3     3  PRO3        0.0310
     16  CG       -12.5110    8.1820    4.0130 C.3     3  PRO3        0.0237
     17  CD       -12.6260    8.1690    5.5330 C.3     3  PRO3        0.0939
     18  N         -8.3610    6.5800    4.1600 N.am    4  SER4       -0.1950
     19  CA        -6.9770    7.0580    3.8880 C.3     4  SER4        0.1924
     20  C         -7.0080    8.1410    2.8090 C.2     4  SER4        0.2314
     21  O         -6.1680    9.0170    2.7720 O.2     4  SER4       -0.2863
     22  CB        -6.1220    5.8870    3.4040 C.3     4  SER4        0.2116
     23  OG        -6.5750    5.4730    2.1220 O.3     4  SER4       -0.2180
     24  N        -12.9100    6.7810   -5.7770 N.3    12  VAL12      -0.1245
     25  CA       -12.0830    5.6370   -5.3210 C.3    12  VAL12       0.1561
     26  C        -12.0130    4.6060   -6.4410 C.2    12  VAL12       0.2260
     27  O        -11.0310    3.9110   -6.6080 O.2    12  VAL12      -0.2867
     28  CB       -12.7290    5.0090   -4.0870 C.3    12  VAL12       0.0252
     29  CG1      -13.8970    4.1210   -4.5150 C.3    12  VAL12       0.0019
     30  CG2      -11.6930    4.1690   -3.3470 C.3    12  VAL12       0.0019
     31  N         -2.5940    9.3050   -4.4040 N.3    18  VAL18      -0.1231
     32  CA        -2.6740    9.3630   -2.9120 C.3    18  VAL18       0.1692
     33  C         -2.9100    7.9630   -2.3430 C.2    18  VAL18       0.2592
     34  O         -2.3190    7.5860   -1.3510 O.2    18  VAL18      -0.2718
     35  CB        -3.8060   10.2980   -2.4800 C.3    18  VAL18       0.0266
     36  CG1       -3.9570   10.2480   -0.9590 C.3    18  VAL18       0.0020
     37  CG2       -3.4770   11.7300   -2.9100 C.3    18  VAL18       0.0020
     38  N         -3.7600    7.1820   -2.9640 N.am   19  CYS19      -0.1956
     39  CA        -4.0130    5.8000   -2.4520 C.3    19  CYS19       0.1843
     40  C         -3.7370    4.7930   -3.5700 C.2    19  CYS19       0.2625
     41  O         -4.6370    4.1750   -4.1020 O.2    19  CYS19      -0.2714
     42  CB        -5.4680    5.6750   -1.9940 C.3    19  CYS19       0.0997
     43  SG        -6.5740    5.8820   -3.4100 S.3    19  CYS19      -0.0797
     44  N         -2.4920    4.6240   -3.9210 N.am   20  ALA20      -0.1977
     45  CA        -2.1340    3.6610   -4.9990 C.3    20  ALA20       0.1597
     46  C         -0.6480    3.3190   -4.8820 C.2    20  ALA20       0.2287
     47  O          0.0580    3.8810   -4.0680 O.2    20  ALA20      -0.2864
     48  CB        -2.4090    4.2920   -6.3660 C.3    20  ALA20       0.0319
     49  N         -3.0510   -2.0160   -8.9020 N.3    27  ARG27      -0.1245
     50  CA        -3.6200   -2.6680   -7.6890 C.3    27  ARG27       0.1563
     51  C         -3.6240   -4.1870   -7.8890 C.2    27  ARG27       0.2260
     52  O         -4.6190   -4.8480   -7.6700 O.2    27  ARG27      -0.2867
     53  CB        -5.0520   -2.1740   -7.4720 C.3    27  ARG27       0.0307
     54  CG        -5.0370   -0.6700   -7.1990 C.3    27  ARG27       0.0489
     55  CD        -6.4540   -0.1910   -6.8790 C.3    27  ARG27       0.2205
     56  NE        -6.4700    1.2970   -6.8090 N.pl3  27  ARG27      -0.0865
     57  CZ        -7.5980    1.9300   -6.6350 C.cat  27  ARG27       0.5346
     58  NH1       -8.7120    1.2590   -6.5260 N.pl3  27  ARG27       0.1354
     59  NH2       -7.6130    3.2330   -6.5710 N.pl3  27  ARG27       0.1354
     60  N         -3.2090   -5.0520   -3.5340 N.3    30  PRO30      -0.2102
     61  CA        -3.0110   -4.0380   -2.4600 C.3    30  PRO30       0.1504
     62  C         -3.0360   -4.6630   -1.0620 C.2    30  PRO30       0.2575
     63  O         -2.4090   -4.1720   -0.1450 O.2    30  PRO30      -0.2718
     64  CB        -4.1960   -3.0800   -2.6240 C.3    30  PRO30       0.0282
     65  CG        -4.7230   -3.3010   -4.0030 C.3    30  PRO30       0.0208
     66  CD        -4.3360   -4.7210   -4.4120 C.3    30  PRO30       0.0893
     67  N         -3.7440   -5.7450   -0.8900 N.am   31  ASP31      -0.1974
     68  CA        -3.7890   -6.3930    0.4470 C.3    31  ASP31       0.1708
     69  C         -2.3910   -6.8920    0.8100 C.2    31  ASP31       0.2293
     70  O         -2.0310   -6.9840    1.9680 O.2    31  ASP31      -0.2864
     71  CB        -4.7610   -7.5730    0.4040 C.3    31  ASP31       0.1436
     72  CG        -6.1860   -7.0560    0.1990 C.2    31  ASP31       0.3671
     73  OD1       -6.3860   -5.8600    0.3350 O.co2  31  ASP31      -0.2456
     74  OD2       -7.0530   -7.8630   -0.0910 O.co2  31  ASP31      -0.2456
     75  N          0.2710   -5.3430   -0.2380 N.3    33  GLN33      -0.1231
     76  CA         1.1680   -4.1700   -0.4350 C.3    33  GLN33       0.1698
     77  C          1.5660   -3.5830    0.9210 C.2    33  GLN33       0.2592
     78  O          0.7300   -3.2280    1.7260 O.2    33  GLN33      -0.2718
     79  CB         0.4250   -3.1130   -1.2530 C.3    33  GLN33       0.0381
     80  CG         1.3230   -1.8960   -1.4710 C.3    33  GLN33       0.0905
     81  CD         0.5590   -0.8460   -2.2830 C.2    33  GLN33       0.2608
     82  OE1        0.5290   -0.9020   -3.4950 O.2    33  GLN33      -0.2717
     83  NE2       -0.0680    0.1120   -1.6590 N.am   33  GLN33      -0.0878
     84  N          2.8420   -3.4760    1.1740 N.am   34  LEU34      -0.1966
     85  CA         3.3010   -2.9100    2.4730 C.3    34  LEU34       0.1728
     86  C          3.6700   -1.4350    2.2990 C.2    34  LEU34       0.2616
     87  O          4.1640   -1.0180    1.2630 O.2    34  LEU34      -0.2715
     88  CB         4.5180   -3.6870    2.9780 C.3    34  LEU34       0.0311
     89  CG         4.1350   -5.1500    3.2110 C.3    34  LEU34       0.0022
     90  CD1        5.3650   -5.9340    3.6680 C.3    34  LEU34       0.0001
     91  CD2        3.0560   -5.2230    4.2940 C.3    34  LEU34       0.0001
     92  N          3.4320   -0.6480    3.3150 N.am   35  MET35      -0.1963
     93  CA         3.7580    0.8020    3.2400 C.3    35  MET35       0.1736
     94  C          4.8270    1.1350    4.2810 C.2    35  MET35       0.2617
     95  O          4.8100    0.6330    5.3870 O.2    35  MET35      -0.2715
     96  CB         2.4990    1.6240    3.5260 C.3    35  MET35       0.0427
     97  CG         1.4410    1.3280    2.4610 C.3    35  MET35       0.0599
     98  SD         0.0460    2.4630    2.6670 S.3    35  MET35      -0.1393
     99  CE         0.8880    3.9670    2.1110 C.3    35  MET35       0.0692
    100  N          5.7580    1.9820    3.9380 N.am   36  CYS36      -0.1954
    101  CA         6.8230    2.3480    4.9100 C.3    36  CYS36       0.1843
    102  C          6.2780    3.4140    5.8640 C.2    36  CYS36       0.2625
    103  O          5.7430    4.4230    5.4440 O.2    36  CYS36      -0.2714
    104  CB         8.0370    2.8940    4.1540 C.3    36  CYS36       0.0997
    105  SG         9.3290    3.3730    5.3300 S.3    36  CYS36      -0.0797
    106  N          6.3870    3.1760    7.1460 N.am   37  ASP37      -0.1971
    107  CA         5.8630    4.1510    8.1430 C.3    37  ASP37       0.1709
    108  C          6.6760    5.4490    8.1160 C.2    37  ASP37       0.2293
    109  O          6.1310    6.5340    8.1790 O.2    37  ASP37      -0.2864
    110  CB         5.9540    3.5290    9.5360 C.3    37  ASP37       0.1436
    111  CG         5.0060    2.3310    9.6240 C.2    37  ASP37       0.3671
    112  OD1        4.1850    2.1850    8.7350 O.co2  37  ASP37      -0.2456
    113  OD2        5.1180    1.5830   10.5810 O.co2  37  ASP37      -0.2456
    114  N          5.9110    6.6350    4.6610 N.3    40  ASP40      -0.1239
    115  CA         4.4380    6.6130    4.4160 C.3    40  ASP40       0.1674
    116  C          4.1590    6.4150    2.9250 C.2    40  ASP40       0.2266
    117  O          3.3460    7.1040    2.3420 O.2    40  ASP40      -0.2867
    118  CB         3.8040    7.9260    4.8910 C.3    40  ASP40       0.1410
    119  CG         3.9540    8.0440    6.4080 C.2    40  ASP40       0.3668
    120  OD1        4.1850    7.0270    7.0400 O.co2  40  ASP40      -0.2456
    121  OD2        3.8370    9.1500    6.9110 O.co2  40  ASP40      -0.2456
    122  N          3.8410    3.3390   -0.4890 N.3    42  ALA42      -0.1245
    123  CA         3.7240    1.8880   -0.8280 C.3    42  ALA42       0.1562
    124  C          4.9450    1.4460   -1.6360 C.2    42  ALA42       0.2260
    125  O          5.5350    2.2280   -2.3530 O.2    42  ALA42      -0.2867
    126  CB         2.4600    1.6650   -1.6590 C.3    42  ALA42       0.0290
    127  N          4.2570  -12.1480    5.8400 N.3    55  VAL55      -0.1231
    128  CA         4.2070  -10.6660    5.9700 C.3    55  VAL55       0.1678
    129  C          4.1990  -10.2940    7.4630 C.2    55  VAL55       0.2434
    130  O          3.3650  -10.7720    8.2070 O.2    55  VAL55      -0.2733
    131  CB         2.9280  -10.1430    5.3130 C.3    55  VAL55       0.0265
    132  CG1        1.7140  -10.5960    6.1260 C.3    55  VAL55       0.0020
    133  CG2        2.9690   -8.6150    5.2660 C.3    55  VAL55       0.0020
    134  N          5.1080   -9.4570    7.9110 N.am   56  PRO56      -0.2718
    135  CA         5.1690   -9.0520    9.3440 C.3    56  PRO56       0.1535
    136  C          4.0620   -8.0580    9.7090 C.2    56  PRO56       0.2599
    137  O          3.8700   -7.0600    9.0440 O.2    56  PRO56      -0.2715
    138  CB         6.5420   -8.3950    9.4770 C.3    56  PRO56       0.0310
    139  CG         6.8700   -7.8850    8.1150 C.3    56  PRO56       0.0237
    140  CD         6.1670   -8.8060    7.1160 C.3    56  PRO56       0.0939
    141  N          3.3340   -8.3230   10.7620 N.am   57  SER57      -0.1950
    142  CA         2.2460   -7.3930   11.1690 C.3    57  SER57       0.1924
    143  C          2.6630   -6.6300   12.4280 C.2    57  SER57       0.2314
    144  O          2.5660   -5.4220   12.4940 O.2    57  SER57      -0.2863
    145  CB         0.9740   -8.1930   11.4590 C.3    57  SER57       0.2116
    146  OG         0.0880   -8.0810   10.3540 O.3    57  SER57      -0.2180
    147  N          5.6880   -6.2930   13.6040 N.3    59  ASP59      -0.1225
    148  CA         6.9310   -5.5250   13.3090 C.3    59  ASP59       0.1805
    149  C          6.6980   -4.6150   12.1040 C.2    59  ASP59       0.2598
    150  O          6.4710   -5.0740   11.0020 O.2    59  ASP59      -0.2718
    151  CB         8.0690   -6.4980   13.0010 C.3    59  ASP59       0.1424
    152  CG         9.3740   -5.7200   12.8270 C.2    59  ASP59       0.3668
    153  OD1       10.0060   -5.4280   13.8300 O.co2  59  ASP59      -0.2456
    154  OD2        9.7210   -5.4280   11.6940 O.co2  59  ASP59      -0.2456
    155  N          6.7560   -3.3260   12.2990 N.am   60  GLU60      -0.1965
    156  CA         6.5450   -2.3950   11.1570 C.3    60  GLU60       0.1733
    157  C          7.6190   -2.6450   10.0980 C.2    60  GLU60       0.2616
    158  O          8.7580   -2.9290   10.4110 O.2    60  GLU60      -0.2715
    159  CB         6.6360   -0.9470   11.6510 C.3    60  GLU60       0.0429
    160  CG         5.5310   -0.6870   12.6760 C.3    60  GLU60       0.1163
    161  CD         5.5720    0.7790   13.1080 C.2    60  GLU60       0.3649
    162  OE1        6.5200    1.4570   12.7480 O.co2  60  GLU60      -0.2457
    163  OE2        4.6540    1.2000   13.7940 O.co2  60  GLU60      -0.2457
    164  N          7.2690   -2.5420    8.8450 N.am   61  TRP61      -0.1974
    165  CA         8.2760   -2.7780    7.7730 C.3    61  TRP61       0.1640
    166  C          8.7990   -1.4340    7.2650 C.2    61  TRP61       0.2290
    167  O          8.0450   -0.5050    7.0490 O.2    61  TRP61      -0.2864
    168  CB         7.6220   -3.5500    6.6250 C.3    61  TRP61       0.0576
    169  CG         7.5860   -2.7000    5.3970 C.ar   61  TRP61       0.0006
    170  CD1        6.6570   -1.7540    5.1340 C.ar   61  TRP61       0.0946
    171  CD2        8.4970   -2.7040    4.2590 C.ar   61  TRP61       0.0152
    172  NE1        6.9380   -1.1770    3.9090 N.ar   61  TRP61      -0.2442
    173  CE2        8.0630   -1.7280    3.3320 C.ar   61  TRP61       0.0810
    174  CE3        9.6470   -3.4540    3.9470 C.ar   61  TRP61       0.0012
    175  CZ2        8.7460   -1.5030    2.1370 C.ar   61  TRP61       0.0191
    176  CZ3       10.3350   -3.2280    2.7430 C.ar   61  TRP61       0.0001
    177  CH2        9.8870   -2.2540    1.8410 C.ar   61  TRP61       0.0015
@<TRIPOS>BOND
     1    49    50    1
     2    51    50    1
     3    51    52    2
     4    50    53    1
     5    53    54    1
     6    54    55    1
     7    55    56    1
     8    56    57    2
     9    57    59    1
    10    57    58    1
    11    27    26    2
    12    26    25    1
    13    48    45    1
    14    24    25    1
    15    25    28    1
    16    45    46    1
    17    45    44    1
    18    46    47    2
    19    29    28    1
    20    66    65    1
    21    66    60    1
    22    31    32    1
    23    41    40    2
    24    28    30    1
    25    65    64    1
    26    44    40   am
    27    40    39    1
    28    60    61    1
    29    82    81    2
    30    43    42    1
    31    38    39    1
    32    38    33   am
    33    32    35    1
    34    32    33    1
    35    37    35    1
    36    64    61    1
    37    35    36    1
    38    61    62    1
    39    39    42    1
    40   125   124    2
    41    33    34    2
    42    81    83   am
    43    81    80    1
    44   126   123    1
    45   124   123    1
    46    80    79    1
    47    79    76    1
    48    62    67   am
    49    62    63    2
    50    67    68    1
    51   123   122    1
    52    76    75    1
    53    76    77    1
    54    74    72   ar
    55    72    73   ar
    56    72    71    1
    57    71    68    1
    58    68    69    1
    59    69    70    2
    60    77    84   am
    61    77    78    2
    62    84    85    1
    63    87    86    2
    64   177   175   ar
    65   177   176   ar
    66    99    98    1
    67    23    22    1
    68   175   173   ar
    69    86    85    1
    70    86    92   am
    71   117   116    2
    72    97    98    1
    73    97    96    1
    74    85    88    1
    75   176   174   ar
    76    21    20    2
    77    20    19    1
    78   116   115    1
    79    88    89    1
    80    89    90    1
    81    89    91    1
    82    93    92    1
    83    93    96    1
    84    93    94    1
    85   173   172   ar
    86   173   171   ar
    87    22    19    1
    88    15    16    1
    89    15    12    1
    90    19    18    1
    91   172   170   ar
    92   100    94   am
    93   100   101    1
    94   174   171   ar
    95    16    17    1
    96   104   101    1
    97   104   105    1
    98    18    13   am
    99   171   169   ar
   100    94    95    2
   101   115   114    1
   102   115   118    1
   103    13    14    2
   104    13    12    1
   105    12    11    1
   106   118   119    1
   107   101   102    1
   108   170   169   ar
   109   133   131    1
   110   131   128    1
   111   131   132    1
   112   169   168    1
   113   103   102    2
   114    17    11    1
   115   127   128    1
   116   102   106   am
   117   128   129    1
   118    11     9   am
   119   119   121   ar
   120   119   120   ar
   121   168   165    1
   122   167   166    2
   123   140   134    1
   124   140   139    1
   125   106   107    1
   126     9    10    2
   127     9     8    1
   128   166   165    1
   129   129   134   am
   130   129   130    2
   131   165   164    1
   132   134   135    1
   133   139   138    1
   134   108   107    1
   135   108   109    2
   136   107   110    1
   137     8     7    1
   138   112   111   ar
   139   164   157   am
   140   137   136    2
   141   135   138    1
   142   135   136    1
   143   110   111    1
   144     7     3   am
   145   111   113   ar
   146   136   141   am
   147   157   158    2
   148   157   156    1
   149     4     3    2
   150   146   145    1
   151     3     2    1
   152   141   142    1
   153   150   149    2
   154   156   159    1
   155   156   155    1
   156   142   145    1
   157   142   143    1
   158     6     5    1
   159   159   160    1
   160   154   152   ar
   161     2     5    1
   162     2     1    1
   163   149   155   am
   164   149   148    1
   165   143   144    2
   166   160   161    1
   167   162   161   ar
   168   152   151    1
   169   152   153   ar
   170   151   148    1
   171   161   163   ar
   172   148   147    1
