@<TRIPOS>MOLECULE
tmp/2lgsK00.pdb
 121 112 0 0 0
SMALL
GASTEIGER

@<TRIPOS>ATOM
      1  N        -34.6180   37.1020  -26.8250 N.3   125  GLU125     -0.1245
      2  CA       -35.7760   36.3790  -27.3320 C.3   125  GLU125      0.1567
      3  C        -35.3780   35.0330  -27.9050 C.2   125  GLU125      0.2260
      4  O        -34.2450   34.7980  -28.3300 O.2   125  GLU125     -0.2867
      5  CB       -36.4470   37.1740  -28.3920 C.3   125  GLU125      0.0388
      6  CG       -36.9380   38.4720  -27.8390 C.3   125  GLU125      0.1160
      7  CD       -37.1940   39.5100  -28.9140 C.2   125  GLU125      0.3649
      8  OE1      -36.3970   39.6970  -29.8410 O.co2 125  GLU125     -0.2457
      9  OE2      -38.2240   40.1620  -28.8050 O.co2 125  GLU125     -0.2457
     10  N        -47.8960   38.3200  -31.1970 N.3   173  TYR173     -0.1241
     11  CA       -47.9790   39.3130  -30.1470 C.3   173  TYR173      0.1605
     12  C        -49.3500   39.5980  -29.5350 C.2   173  TYR173      0.2264
     13  O        -50.2430   40.3290  -29.9620 O.2   173  TYR173     -0.2867
     14  CB       -47.3920   40.6110  -30.6260 C.3   173  TYR173      0.0534
     15  CG       -46.7840   41.3590  -29.4560 C.ar  173  TYR173     -0.0201
     16  CD1      -45.4980   41.0430  -29.0060 C.ar  173  TYR173     -0.0009
     17  CD2      -47.5160   42.3800  -28.8410 C.ar  173  TYR173     -0.0009
     18  CE1      -44.9500   41.7560  -27.9390 C.ar  173  TYR173      0.0417
     19  CE2      -46.9800   43.0990  -27.7780 C.ar  173  TYR173      0.0417
     20  CZ       -45.6990   42.7790  -27.3370 C.ar  173  TYR173      0.1957
     21  OH       -45.1720   43.4860  -26.2610 O.3   173  TYR173     -0.2866
     22  N        -43.8250   36.4120  -28.2440 N.3   206  GLU206     -0.1231
     23  CA       -43.3700   37.5090  -29.0790 C.3   206  GLU206      0.1699
     24  C        -44.0760   37.6090  -30.4230 C.2   206  GLU206      0.2592
     25  O        -44.9960   36.8380  -30.6590 O.2   206  GLU206     -0.2718
     26  CB       -41.8670   37.3880  -29.2670 C.3   206  GLU206      0.0402
     27  CG       -41.1480   38.4470  -28.4480 C.3   206  GLU206      0.1161
     28  CD       -41.4140   39.9200  -28.8100 C.2   206  GLU206      0.3649
     29  OE1      -41.8030   40.2250  -29.9440 O.co2 206  GLU206     -0.2457
     30  OE2      -41.2050   40.8020  -27.9650 O.co2 206  GLU206     -0.2457
     31  N        -43.6680   38.4830  -31.3280 N.am  207  VAL207     -0.1980
     32  CA       -44.3870   38.7770  -32.5590 C.3   207  VAL207      0.1595
     33  C        -44.5330   37.6550  -33.5650 C.2   207  VAL207      0.2287
     34  O        -45.5620   37.5110  -34.2130 O.2   207  VAL207     -0.2864
     35  CB       -43.6850   40.0030  -33.1660 C.3   207  VAL207      0.0276
     36  CG1      -43.8820   40.1740  -34.6580 C.3   207  VAL207      0.0022
     37  CG2      -44.3370   41.2110  -32.5440 C.3   207  VAL207      0.0022
     38  N        -42.2640   32.2810  -31.1820 N.3   212  GLN212     -0.1245
     39  CA       -41.3170   33.2300  -30.6190 C.3   212  GLN212      0.1566
     40  C        -41.7320   33.5890  -29.2020 C.2   212  GLN212      0.2260
     41  O        -42.9140   33.8600  -28.9420 O.2   212  GLN212     -0.2867
     42  CB       -41.2510   34.4900  -31.4290 C.3   212  GLN212      0.0367
     43  CG       -39.8120   34.9840  -31.2780 C.3   212  GLN212      0.0905
     44  CD       -39.5580   36.3160  -31.9380 C.2   212  GLN212      0.2608
     45  OE1      -40.4920   37.0890  -32.2110 O.2   212  GLN212     -0.2717
     46  NE2      -38.2890   36.6040  -32.2050 N.am  212  GLN212     -0.0878
     47  N        -40.5050   35.2660  -24.9770 N.3   214  GLU214     -0.1245
     48  CA       -39.6260   36.1130  -24.1840 C.3   214  GLU214      0.1567
     49  C        -39.8980   36.0160  -22.6980 C.2   214  GLU214      0.2260
     50  O        -41.0380   36.1560  -22.2410 O.2   214  GLU214     -0.2867
     51  CB       -39.8020   37.5360  -24.6150 C.3   214  GLU214      0.0388
     52  CG       -38.6960   38.4690  -24.1540 C.3   214  GLU214      0.1160
     53  CD       -38.9050   39.8830  -24.6850 C.2   214  GLU214      0.3649
     54  OE1      -39.5050   40.0220  -25.7470 O.co2 214  GLU214     -0.2457
     55  OE2      -38.4900   40.8580  -24.0550 O.co2 214  GLU214     -0.2457
     56  N        -40.5630   37.9990  -37.7510 N.3   258  ASN258     -0.1225
     57  CA       -39.6240   38.4710  -36.7560 C.3   258  ASN258      0.1785
     58  C        -38.3940   37.6150  -36.4310 C.2   258  ASN258      0.2597
     59  O        -38.3770   36.3850  -36.4780 O.2   258  ASN258     -0.2718
     60  CB       -40.4200   38.7220  -35.4920 C.3   258  ASN258      0.1169
     61  CG       -39.9770   39.9590  -34.7370 C.2   258  ASN258      0.2627
     62  OD1      -39.7170   39.9640  -33.5370 O.2   258  ASN258     -0.2716
     63  ND2      -39.8870   41.0850  -35.4120 N.am  258  ASN258     -0.0877
     64  N        -37.3520   38.3520  -36.0820 N.am  259  GLY259     -0.1957
     65  CA       -36.1180   37.7590  -35.6200 C.3   259  GLY259      0.1869
     66  C        -36.0110   37.9110  -34.1090 C.2   259  GLY259      0.2309
     67  O        -36.7210   38.6580  -33.4260 O.2   259  GLY259     -0.2863
     68  N        -34.0030   39.2560  -31.2300 N.3   261  GLY261     -0.1225
     69  CA       -32.9570   40.1540  -30.7750 C.3   261  GLY261      0.1811
     70  C        -32.7550   40.1330  -29.2590 C.2   261  GLY261      0.2280
     71  O        -33.6270   39.7240  -28.4890 O.2   261  GLY261     -0.2866
     72  N        -31.9270   42.9590  -26.7520 N.3   263  HIS263     -0.1241
     73  CA       -31.6080   44.3640  -26.5030 C.3   263  HIS263      0.1621
     74  C        -30.9540   44.5660  -25.1600 C.2   263  HIS263      0.2264
     75  O        -31.4890   44.1430  -24.1400 O.2   263  HIS263     -0.2867
     76  CB       -32.8000   45.2960  -26.4490 C.3   263  HIS263      0.0745
     77  CG       -33.7720   45.2470  -27.6090 C.ar  263  HIS263      0.0817
     78  ND1      -34.6950   46.1640  -27.9040 N.ar  263  HIS263     -0.2268
     79  CD2      -33.8090   44.2620  -28.5680 C.ar  263  HIS263      0.1154
     80  CE1      -35.2540   45.7230  -29.0110 C.ar  263  HIS263      0.1986
     81  NE2      -34.7340   44.6130  -29.4040 N.ar  263  HIS263     -0.2212
     82  N        -31.2670   39.5490  -39.7910 N.3   315  ARG315     -0.1245
     83  CA       -32.1560   40.3230  -38.9180 C.3   315  ARG315      0.1563
     84  C        -31.9030   41.8140  -39.0870 C.2   315  ARG315      0.2260
     85  O        -32.8120   42.6310  -39.2120 O.2   315  ARG315     -0.2867
     86  CB       -31.9200   39.9250  -37.4550 C.3   315  ARG315      0.0307
     87  CG       -32.5460   40.8540  -36.4350 C.3   315  ARG315      0.0489
     88  CD       -32.5110   40.3070  -35.0120 C.3   315  ARG315      0.2205
     89  NE       -32.8030   41.3630  -34.0460 N.pl3 315  ARG315     -0.0865
     90  CZ       -31.8140   42.1370  -33.5780 C.cat 315  ARG315      0.5346
     91  NH1      -30.5310   41.9280  -33.9200 N.pl3 315  ARG315      0.1354
     92  NH2      -32.1090   43.1250  -32.7450 N.pl3 315  ARG315      0.1354
     93  N        -33.5550   47.5140  -36.5520 N.3   319  PRO319     -0.2116
     94  CA       -32.9030   48.6370  -35.8860 C.3   319  PRO319      0.1372
     95  C        -31.5070   48.9200  -36.4440 C.2   319  PRO319      0.2244
     96  O        -30.4800   48.8300  -35.7680 O.2   319  PRO319     -0.2868
     97  CB       -32.9070   48.2410  -34.4170 C.3   319  PRO319      0.0268
     98  CG       -32.5880   46.7780  -34.4650 C.3   319  PRO319      0.0207
     99  CD       -33.4590   46.3550  -35.6590 C.3   319  PRO319      0.0892
    100  N        -38.5320   54.3790  -32.9250 N.3   329  ARG329     -0.1245
    101  CA       -38.1660   52.9410  -32.8780 C.3   329  ARG329      0.1563
    102  C        -37.9430   52.5390  -34.3490 C.2   329  ARG329      0.2260
    103  O        -38.8040   52.1780  -35.1460 O.2   329  ARG329     -0.2867
    104  CB       -39.2740   52.0090  -32.2820 C.3   329  ARG329      0.0307
    105  CG       -39.8030   52.2560  -30.8540 C.3   329  ARG329      0.0489
    106  CD       -39.5590   51.2230  -29.7310 C.3   329  ARG329      0.2205
    107  NE       -40.2130   49.9040  -29.7890 N.pl3 329  ARG329     -0.0865
    108  CZ       -40.6290   49.2440  -28.6880 C.cat 329  ARG329      0.5346
    109  NH1      -40.6470   49.7810  -27.4720 N.pl3 329  ARG329      0.1354
    110  NH2      -41.0560   47.9880  -28.8040 N.pl3 329  ARG329      0.1354
    111  N        -30.8000   48.5960  -29.0190 N.3   349  ARG349     -0.1245
    112  CA       -31.6650   47.5930  -29.6300 C.3   349  ARG349      0.1563
    113  C        -31.0410   46.5930  -30.5800 C.2   349  ARG349      0.2260
    114  O        -31.6410   45.5520  -30.8120 O.2   349  ARG349     -0.2867
    115  CB       -32.7870   48.2530  -30.3880 C.3   349  ARG349      0.0307
    116  CG       -33.7290   49.0250  -29.5310 C.3   349  ARG349      0.0489
    117  CD       -34.9430   49.2100  -30.3790 C.3   349  ARG349      0.2205
    118  NE       -36.1460   49.0090  -29.5910 N.pl3 349  ARG349     -0.0865
    119  CZ       -37.0780   48.1130  -29.9270 C.cat 349  ARG349      0.5346
    120  NH1      -36.9520   47.1760  -30.8700 N.pl3 349  ARG349      0.1354
    121  NH2      -38.1690   48.0600  -29.2060 N.pl3 349  ARG349      0.1354
@<TRIPOS>BOND
     1    82    83    1
     2    85    84    2
     3    84    83    1
     4    83    86    1
     5    56    57    1
     6    86    87    1
     7    57    58    1
     8    57    60    1
     9    93    94    1
    10    93    99    1
    11    59    58    2
    12    95    94    1
    13    95    96    2
    14    87    88    1
    15    58    64   am
    16    64    65    1
    17    94    97    1
    18    99    98    1
    19    65    66    1
    20    60    61    1
    21    63    61   am
    22   103   102    2
    23    88    89    1
    24    61    62    2
    25    36    35    1
    26    98    97    1
    27   102   101    1
    28    34    33    2
    29    66    67    2
    30    89    90    2
    31    91    90    1
    32    90    92    1
    33    33    32    1
    34    35    32    1
    35    35    37    1
    36   100   101    1
    37   101   104    1
    38    32    31    1
    39   104   105    1
    40    45    44    2
    41    46    44   am
    42    44    43    1
    43    42    43    1
    44    42    39    1
    45    31    24   am
    46    68    69    1
    47    10    11    1
    48    38    39    1
    49   120   119    1
    50   105   106    1
    51   114   113    2
    52    69    70    1
    53    25    24    2
    54    14    11    1
    55    14    15    1
    56    39    40    1
    57   113   112    1
    58    24    23    1
    59   115   112    1
    60   115   116    1
    61   117   118    1
    62   117   116    1
    63    11    12    1
    64    13    12    2
    65    29    28   ar
    66   119   118    2
    67   119   121    1
    68     8     7   ar
    69   107   106    1
    70   107   108    2
    71   112   111    1
    72    15    16   ar
    73    15    17   ar
    74    81    80   ar
    75    81    79   ar
    76    26    23    1
    77    26    27    1
    78    70    71    2
    79    40    41    2
    80    23    22    1
    81    80    78   ar
    82    16    18   ar
    83     7     9   ar
    84     7     6    1
    85    17    19   ar
    86    28    27    1
    87    28    30   ar
    88   110   108    1
    89   108   109    1
    90    79    77   ar
    91     5     6    1
    92     5     2    1
    93     4     3    2
    94    18    20   ar
    95     3     2    1
    96    78    77   ar
    97    19    20   ar
    98    77    76    1
    99    20    21    1
   100     2     1    1
   101    72    73    1
   102    73    76    1
   103    73    74    1
   104    54    53   ar
   105    74    75    2
   106    47    48    1
   107    53    52    1
   108    53    55   ar
   109    51    48    1
   110    51    52    1
   111    48    49    1
   112    49    50    2
