@<TRIPOS>MOLECULE
tmp/2lh8A00.pdb
 114 114 0 0 0
SMALL
GASTEIGER

@<TRIPOS>ATOM
      1  N          2.2710    1.3790    7.4390 N.3    10  MET10      -0.1245
      2  CA         1.6280    2.6940    7.4910 C.3    10  MET10       0.1570
      3  C          1.4170    3.1970    8.9310 C.2    10  MET10       0.2261
      4  O          0.7210    2.5710    9.7290 O.2    10  MET10      -0.2867
      5  CB         0.2970    2.6410    6.7210 C.3    10  MET10       0.0387
      6  CG        -0.6260    1.4800    7.1270 C.3    10  MET10       0.0595
      7  SD        -2.2980    1.9050    7.6580 S.3    10  MET10      -0.1393
      8  CE        -2.3440    1.2380    9.3400 C.3    10  MET10       0.0692
      9  N         -0.7760    4.7320   10.7450 N.3    12  ARG12      -0.1231
     10  CA        -2.2280    4.9770   10.9420 C.3    12  ARG12       0.1679
     11  C         -2.7600    6.2620   10.2440 C.2    12  ARG12       0.2434
     12  O         -3.1910    7.1900   10.9210 O.2    12  ARG12      -0.2733
     13  CB        -2.5420    4.9230   12.4490 C.3    12  ARG12       0.0321
     14  CG        -4.0520    4.7980   12.7290 C.3    12  ARG12       0.0489
     15  CD        -4.3640    4.9420   14.2230 C.3    12  ARG12       0.2205
     16  NE        -3.9070    3.7740   15.0040 N.pl3  12  ARG12      -0.0865
     17  CZ        -3.7650    3.7180   16.3170 C.cat  12  ARG12       0.5346
     18  NH1       -3.9780    4.7520   17.0820 N.pl3  12  ARG12       0.1354
     19  NH2       -3.4100    2.6040   16.8930 N.pl3  12  ARG12       0.1354
     20  N         -2.8480    6.2670    8.8980 N.am   13  PRO13      -0.2718
     21  CA        -3.0850    7.4270    8.0290 C.3    13  PRO13       0.1535
     22  C         -4.1260    8.4820    8.4220 C.2    13  PRO13       0.2598
     23  O         -3.9600    9.6240    8.0160 O.2    13  PRO13      -0.2715
     24  CB        -3.4600    6.8200    6.6730 C.3    13  PRO13       0.0310
     25  CG        -2.5800    5.5840    6.6260 C.3    13  PRO13       0.0237
     26  CD        -2.5870    5.1050    8.0710 C.3    13  PRO13       0.0939
     27  N         -5.2820    8.0770    8.9640 N.am   14  MET14      -0.1964
     28  CA        -6.4850    8.9260    9.0870 C.3    14  MET14       0.1736
     29  C         -6.8970    9.6290    7.7630 C.2    14  MET14       0.2616
     30  O         -7.3620   10.7650    7.7540 O.2    14  MET14      -0.2715
     31  CB        -6.3190    9.8430   10.3110 C.3    14  MET14       0.0427
     32  CG        -7.6410   10.4360   10.8110 C.3    14  MET14       0.0599
     33  SD        -7.5090   11.1920   12.4530 S.3    14  MET14      -0.1393
     34  CE        -8.8840   12.3670   12.3480 C.3    14  MET14       0.0692
     35  N         -6.6110    8.9770    6.6260 N.am   15  MET15      -0.1963
     36  CA        -6.8440    9.4910    5.2660 C.3    15  MET15       0.1736
     37  C         -8.2860    9.2550    4.8110 C.2    15  MET15       0.2616
     38  O         -9.1750    9.2480    5.6420 O.2    15  MET15      -0.2715
     39  CB        -5.7900    8.9030    4.3090 C.3    15  MET15       0.0427
     40  CG        -4.4750    9.6600    4.4900 C.3    15  MET15       0.0599
     41  SD        -4.5370   11.3750    3.9020 S.3    15  MET15      -0.1393
     42  CE        -3.1120   12.0230    4.8140 C.3    15  MET15       0.0692
     43  N         -8.5880    9.3260    3.5110 N.am   16  HIS16      -0.1959
     44  CA        -9.9690    9.3270    3.0170 C.3    16  HIS16       0.1787
     45  C        -10.0700    8.8280    1.5800 C.2    16  HIS16       0.2620
     46  O         -9.1130    8.9810    0.8240 O.2    16  HIS16      -0.2715
     47  CB       -10.5120   10.7570    3.1300 C.3    16  HIS16       0.0785
     48  CG        -9.9120   11.7530    2.1800 C.ar   16  HIS16       0.0821
     49  ND1       -8.7020   12.3930    2.3570 N.ar   16  HIS16      -0.2267
     50  CD2      -10.4520   12.1730    0.9970 C.ar   16  HIS16       0.1154
     51  CE1       -8.4860   13.1700    1.2770 C.ar   16  HIS16       0.1986
     52  NE2       -9.5430   13.0550    0.4410 N.ar   16  HIS16      -0.2212
     53  N        -11.3060    8.5680    1.1610 N.am   17  PHE17      -0.1960
     54  CA       -11.6350    8.1320   -0.2000 C.3    17  PHE17       0.1771
     55  C        -12.5690    9.1300   -0.9020 C.2    17  PHE17       0.2620
     56  O        -12.2360    9.6070   -1.9810 O.2    17  PHE17      -0.2715
     57  CB       -12.2540    6.7230   -0.1290 C.3    17  PHE17       0.0574
     58  CG       -11.4570    5.7550    0.7280 C.ar   17  PHE17      -0.0200
     59  CD1      -11.6920    5.6740    2.1160 C.ar   17  PHE17      -0.0042
     60  CD2      -10.4540    4.9610    0.1480 C.ar   17  PHE17      -0.0042
     61  CE1      -10.9130    4.8220    2.9170 C.ar   17  PHE17      -0.0003
     62  CE2       -9.6730    4.1160    0.9520 C.ar   17  PHE17      -0.0003
     63  CZ        -9.9020    4.0420    2.3330 C.ar   17  PHE17      -0.0000
     64  N        -13.5270    9.6880   -0.1490 N.am   18  GLY18      -0.1940
     65  CA       -14.6670   10.4300   -0.7120 C.3    18  GLY18       0.2014
     66  C        -15.9170    9.5530   -0.8850 C.2    18  GLY18       0.2639
     67  O        -16.9210   10.0130   -1.4120 O.2    18  GLY18      -0.2714
     68  N        -15.8540    8.3190   -0.3740 N.am   19  ASN19      -0.1958
     69  CA       -16.8680    7.2810   -0.4690 C.3    19  ASN19       0.1819
     70  C        -17.0270    6.6780    0.9340 C.2    19  ASN19       0.2621
     71  O        -16.1150    6.0100    1.4220 O.2    19  ASN19      -0.2715
     72  CB       -16.4010    6.2140   -1.4870 C.3    19  ASN19       0.1195
     73  CG       -16.2650    6.7190   -2.9160 C.2    19  ASN19       0.2630
     74  OD1      -15.4940    7.6110   -3.2300 O.2    19  ASN19      -0.2716
     75  ND2      -16.9350    6.0980   -3.8560 N.am   19  ASN19      -0.0877
     76  N        -18.0960    7.0280    1.6450 N.am   20  ASP20      -0.1971
     77  CA       -18.2700    6.7370    3.0790 C.3    20  ASP20       0.1709
     78  C        -18.2960    5.2290    3.3910 C.2    20  ASP20       0.2293
     79  O        -17.7010    4.7620    4.3600 O.2    20  ASP20      -0.2864
     80  CB       -19.5510    7.4240    3.5740 C.3    20  ASP20       0.1436
     81  CG       -19.5780    8.9000    3.1620 C.2    20  ASP20       0.3671
     82  OD1      -18.8610    9.6840    3.8220 O.co2  20  ASP20      -0.2456
     83  OD2      -19.9340    9.1100    1.9790 O.co2  20  ASP20      -0.2456
     84  N        -14.5250    4.5970    3.6430 N.3    23  ASP23      -0.1239
     85  CA       -14.1390    5.1230    4.9650 C.3    23  ASP23       0.1674
     86  C        -14.3790    4.0830    6.0560 C.2    23  ASP23       0.2266
     87  O        -13.4510    3.6450    6.7520 O.2    23  ASP23      -0.2867
     88  CB       -14.9190    6.4220    5.2660 C.3    23  ASP23       0.1410
     89  CG       -15.5900    6.4760    6.6670 C.2    23  ASP23       0.3668
     90  OD1      -14.8760    6.3430    7.6880 O.co2  23  ASP23      -0.2456
     91  OD2      -16.8340    6.5080    6.7270 O.co2  23  ASP23      -0.2456
     92  N        -12.3870    0.7910    5.7600 N.3    26  TYR26      -0.1227
     93  CA       -11.0750    0.9910    6.3560 C.3    26  TYR26       0.1736
     94  C        -11.0960    0.7920    7.8800 C.2    26  TYR26       0.2595
     95  O        -10.4330   -0.1160    8.3930 O.2    26  TYR26      -0.2718
     96  CB       -10.4930    2.3510    5.9380 C.3    26  TYR26       0.0548
     97  CG        -8.9860    2.5090    6.0620 C.ar   26  TYR26      -0.0200
     98  CD1       -8.1870    1.5950    6.7750 C.ar   26  TYR26      -0.0009
     99  CD2       -8.3720    3.6190    5.4640 C.ar   26  TYR26      -0.0009
    100  CE1       -6.8200    1.8280    6.9780 C.ar   26  TYR26       0.0417
    101  CE2       -7.0010    3.8600    5.6430 C.ar   26  TYR26       0.0417
    102  CZ        -6.2340    2.9700    6.4170 C.ar   26  TYR26       0.1957
    103  OH        -4.9330    3.2330    6.6490 O.3    26  TYR26      -0.2866
    104  N        -11.8990    1.5620    8.6220 N.am   27  ARG27      -0.1980
    105  CA       -11.9720    1.4360   10.0910 C.3    27  ARG27       0.1597
    106  C        -12.4910    0.0730   10.5820 C.2    27  ARG27       0.2287
    107  O        -12.1870   -0.3000   11.7110 O.2    27  ARG27      -0.2864
    108  CB       -12.7720    2.6170   10.6580 C.3    27  ARG27       0.0334
    109  CG       -12.7290    2.6540   12.1950 C.3    27  ARG27       0.0492
    110  CD       -13.1410    4.0140   12.7660 C.3    27  ARG27       0.2205
    111  NE       -14.5210    4.3790   12.3930 N.pl3  27  ARG27      -0.0865
    112  CZ       -15.2890    5.2710   12.9910 C.cat  27  ARG27       0.5346
    113  NH1      -14.8980    5.9140   14.0570 N.pl3  27  ARG27       0.1354
    114  NH2      -16.4760    5.5350   12.5260 N.pl3  27  ARG27       0.1354
@<TRIPOS>BOND
     1    75    73   am
     2    74    73    2
     3    73    72    1
     4    56    55    2
     5    72    69    1
     6    67    66    2
     7    55    54    1
     8    55    64   am
     9    66    65    1
    10    66    68   am
    11    65    64    1
    12    69    68    1
    13    69    70    1
    14    54    57    1
    15    54    53    1
    16    57    58    1
    17    60    58   ar
    18    60    62   ar
    19    52    50   ar
    20    52    51   ar
    21    58    59   ar
    22    46    45    2
    23    70    71    2
    24    70    76   am
    25    62    63   ar
    26    50    48   ar
    27    53    45   am
    28    51    49   ar
    29    45    44    1
    30    76    77    1
    31    83    81   ar
    32    59    61   ar
    33    48    49   ar
    34    48    47    1
    35    63    61   ar
    36    44    47    1
    37    44    43    1
    38    77    78    1
    39    77    80    1
    40    81    80    1
    41    81    82   ar
    42    78    79    2
    43    43    37   am
    44    84    85    1
    45    41    40    1
    46    41    42    1
    47    39    40    1
    48    39    36    1
    49    37    36    1
    50    37    38    2
    51    85    88    1
    52    85    86    1
    53    36    35    1
    54    88    89    1
    55    99   101   ar
    56    99    97   ar
    57   101   102   ar
    58    92    93    1
    59    96    97    1
    60    96    93    1
    61    86    87    2
    62    97    98   ar
    63    93    94    1
    64   102   103    1
    65   102   100   ar
    66    25    24    1
    67    25    26    1
    68    35    29   am
    69    89    91   ar
    70    89    90   ar
    71    24    21    1
    72     5     6    1
    73     5     2    1
    74    98   100   ar
    75     6     7    1
    76     1     2    1
    77     2     3    1
    78     7     8    1
    79    30    29    2
    80    29    28    1
    81    94    95    2
    82    94   104   am
    83    23    22    2
    84    21    22    1
    85    21    20    1
    86    26    20    1
    87    22    27   am
    88   104   105    1
    89    20    11   am
    90     3     4    2
    91    27    28    1
    92    28    31    1
    93   105   106    1
    94   105   108    1
    95    11    12    2
    96    11    10    1
    97    31    32    1
    98   106   107    2
    99   108   109    1
   100     9    10    1
   101    32    33    1
   102    10    13    1
   103   109   110    1
   104    34    33    1
   105   111   110    1
   106   111   112    2
   107    13    14    1
   108   114   112    1
   109    14    15    1
   110   112   113    1
   111    15    16    1
   112    16    17    2
   113    17    19    1
   114    17    18    1
