@<TRIPOS>MOLECULE
tmp/2lhaA00.pdb
 102 100 0 0 0
SMALL
GASTEIGER

@<TRIPOS>ATOM
      1  N         16.8890    1.8200   -1.5010 N.3    39  ASP39      -0.1225
      2  CA        16.1640    2.3560   -2.6520 C.3    39  ASP39       0.1790
      3  C         14.7050    1.9170   -2.5990 C.2    39  ASP39       0.2440
      4  O         14.3570    0.8320   -3.0670 O.2    39  ASP39      -0.2733
      5  CB        16.8080    1.8910   -3.9660 C.3    39  ASP39       0.1423
      6  CG        18.0830    2.6440   -4.3040 C.2    39  ASP39       0.3668
      7  OD1       18.6160    3.3590   -3.4290 O.co2  39  ASP39      -0.2456
      8  OD2       18.5540    2.5420   -5.4560 O.co2  39  ASP39      -0.2456
      9  N         13.8310    2.7600   -2.0280 N.am   40  PRO40      -0.2718
     10  CA        12.4070    2.4500   -1.8780 C.3    40  PRO40       0.1535
     11  C         11.6190    2.4390   -3.1890 C.2    40  PRO40       0.2598
     12  O         11.7790    3.3130   -4.0430 O.2    40  PRO40      -0.2715
     13  CB        11.8760    3.5720   -0.9780 C.3    40  PRO40       0.0310
     14  CG        13.0740    4.3080   -0.4740 C.3    40  PRO40       0.0237
     15  CD        14.1590    4.0840   -1.4810 C.3    40  PRO40       0.0939
     16  N         10.7570    1.4370   -3.3200 N.am   41  TYR41      -0.1974
     17  CA         9.8910    1.2780   -4.4810 C.3    41  TYR41       0.1639
     18  C          8.7550    0.3280   -4.1180 C.2    41  TYR41       0.2290
     19  O          9.0010   -0.7970   -3.7000 O.2    41  TYR41      -0.2864
     20  CB        10.6760    0.7320   -5.6810 C.3    41  TYR41       0.0560
     21  CG         9.7970    0.2550   -6.8180 C.ar   41  TYR41      -0.0198
     22  CD1        9.1730    1.1570   -7.6720 C.ar   41  TYR41      -0.0009
     23  CD2        9.5860   -1.1030   -7.0310 C.ar   41  TYR41      -0.0009
     24  CE1        8.3620    0.7190   -8.7010 C.ar   41  TYR41       0.0417
     25  CE2        8.7800   -1.5460   -8.0590 C.ar   41  TYR41       0.0417
     26  CZ         8.1690   -0.6340   -8.8900 C.ar   41  TYR41       0.1957
     27  OH         7.3600   -1.0790   -9.9110 O.3    41  TYR41      -0.2866
     28  N          1.0160    0.4830   -9.6830 N.3    57  LYS57      -0.1245
     29  CA         2.2950    0.7320   -9.0340 C.3    57  LYS57       0.1561
     30  C          2.5060    2.2260   -8.8290 C.2    57  LYS57       0.2260
     31  O          1.8200    3.0420   -9.4440 O.2    57  LYS57      -0.2867
     32  CB         3.4480    0.1400   -9.8550 C.3    57  LYS57       0.0271
     33  CG         3.6520    0.8120  -11.2080 C.3    57  LYS57       0.0035
     34  CD         5.0710    1.3420  -11.3620 C.3    57  LYS57       0.0206
     35  CE         5.0830    2.8420  -11.6180 C.3    57  LYS57       0.1093
     36  NZ         4.7490    3.1700  -13.0290 N.3    57  LYS57      -0.1314
     37  N          5.5770    5.5490   -7.8700 N.3    59  THR59      -0.1203
     38  CA         6.9260    5.9960   -8.1620 C.3    59  THR59       0.1994
     39  C          7.5470    6.6300   -6.9230 C.2    59  THR59       0.2618
     40  O          6.9850    7.5600   -6.3540 O.2    59  THR59      -0.2717
     41  CB         6.9320    7.0250   -9.3080 C.3    59  THR59       0.1784
     42  OG1        5.6150    7.1250   -9.8790 O.3    59  THR59      -0.2211
     43  CG2        7.9360    6.6310  -10.3830 C.3    59  THR59       0.0376
     44  N          8.6910    6.1210   -6.4940 N.am   60  ILE60      -0.1965
     45  CA         9.3620    6.6530   -5.3170 C.3    60  ILE60       0.1727
     46  C         10.8200    6.9660   -5.6340 C.2    60  ILE60       0.2616
     47  O         11.4400    6.2940   -6.4570 O.2    60  ILE60      -0.2715
     48  CB         9.2900    5.6660   -4.1280 C.3    60  ILE60       0.0290
     49  CG1        7.8430    5.2170   -3.8900 C.3    60  ILE60       0.0022
     50  CG2        9.8610    6.3050   -2.8670 C.3    60  ILE60       0.0023
     51  CD1        7.7090    4.1080   -2.8710 C.3    60  ILE60       0.0001
     52  N         11.3520    8.0010   -4.9970 N.am   61  LYS61      -0.1963
     53  CA        12.7370    8.3960   -5.2020 C.3    61  LYS61       0.1728
     54  C         13.6620    7.4910   -4.3990 C.2    61  LYS61       0.2616
     55  O         13.5170    7.3640   -3.1840 O.2    61  LYS61      -0.2715
     56  CB        12.9410    9.8570   -4.7950 C.3    61  LYS61       0.0311
     57  CG        12.2290   10.8500   -5.7020 C.3    61  LYS61       0.0038
     58  CD        12.8020   10.8340   -7.1100 C.3    61  LYS61       0.0206
     59  CE        12.0800   11.8170   -8.0160 C.3    61  LYS61       0.1093
     60  NZ        12.7120   11.8980   -9.3570 N.3    61  LYS61      -0.1314
     61  N         14.6030    6.8660   -5.0890 N.am   62  LYS62      -0.1977
     62  CA        15.5530    5.9560   -4.4600 C.3    62  LYS62       0.1596
     63  C         16.5440    6.6980   -3.5530 C.2    62  LYS62       0.2287
     64  O         16.6130    7.9300   -3.5680 O.2    62  LYS62      -0.2864
     65  CB        16.3020    5.1600   -5.5320 C.3    62  LYS62       0.0298
     66  CG        16.9150    6.0180   -6.6260 C.3    62  LYS62       0.0038
     67  CD        18.2920    5.5080   -7.0190 C.3    62  LYS62       0.0206
     68  CE        19.2960    5.7470   -5.9060 C.3    62  LYS62       0.1093
     69  NZ        20.1860    4.5780   -5.6940 N.3    62  LYS62      -0.1314
     70  N         15.5810   -1.5440   -4.2930 N.3    94  TYR94      -0.1241
     71  CA        16.5200   -1.7140   -5.3880 C.3    94  TYR94       0.1605
     72  C         17.9450   -1.5500   -4.8870 C.2    94  TYR94       0.2264
     73  O         18.5880   -0.5360   -5.1400 O.2    94  TYR94      -0.2867
     74  CB        16.2290   -0.7260   -6.5180 C.3    94  TYR94       0.0534
     75  CG        15.0400   -1.1170   -7.3670 C.ar   94  TYR94      -0.0201
     76  CD1       14.9710   -2.3690   -7.9630 C.ar   94  TYR94      -0.0009
     77  CD2       13.9860   -0.2350   -7.5740 C.ar   94  TYR94      -0.0009
     78  CE1       13.8890   -2.7330   -8.7390 C.ar   94  TYR94       0.0417
     79  CE2       12.9010   -0.5920   -8.3500 C.ar   94  TYR94       0.0417
     80  CZ        12.8580   -1.8400   -8.9290 C.ar   94  TYR94       0.1957
     81  OH        11.7790   -2.1980   -9.7040 O.3    94  TYR94      -0.2866
     82  N         20.7330    0.1850   -6.7650 N.3    97  ILE97      -0.1231
     83  CA        20.1950    0.3350   -8.1190 C.3    97  ILE97       0.1692
     84  C         20.2320   -1.0060   -8.8610 C.2    97  ILE97       0.2593
     85  O         20.4540   -1.0690  -10.0700 O.2    97  ILE97      -0.2718
     86  CB        20.9540    1.4180   -8.9360 C.3    97  ILE97       0.0266
     87  CG1       21.2700    2.6350   -8.0590 C.3    97  ILE97       0.0019
     88  CG2       20.1320    1.8530  -10.1460 C.3    97  ILE97       0.0020
     89  CD1       22.1900    3.6420   -8.7190 C.3    97  ILE97       0.0001
     90  N         20.0050   -2.0810   -8.1170 N.am   98  GLY98      -0.1942
     91  CA        20.0070   -3.4040   -8.7030 C.3    98  GLY98       0.2014
     92  C         18.6840   -4.1160   -8.5120 C.2    98  GLY98       0.2638
     93  O         17.7240   -3.8620   -9.2380 O.2    98  GLY98      -0.2714
     94  N         18.6220   -5.0050   -7.5280 N.am   99  LYS99      -0.1977
     95  CA        17.4050   -5.7560   -7.2510 C.3    99  LYS99       0.1596
     96  C         17.4460   -6.3470   -5.8470 C.2    99  LYS99       0.2287
     97  O         18.4390   -6.9560   -5.4520 O.2    99  LYS99      -0.2864
     98  CB        17.2250   -6.8710   -8.2930 C.3    99  LYS99       0.0298
     99  CG        15.9730   -7.7100   -8.0880 C.3    99  LYS99       0.0038
    100  CD        16.3020   -9.0580   -7.4680 C.3    99  LYS99       0.0206
    101  CE        15.1680   -9.5580   -6.5900 C.3    99  LYS99       0.1093
    102  NZ        15.5550  -10.7710   -5.8260 N.3    99  LYS99      -0.1314
@<TRIPOS>BOND
     1    36    35    1
     2    35    34    1
     3    34    33    1
     4    33    32    1
     5    43    41    1
     6    88    86    1
     7    85    84    2
     8    27    26    1
     9    42    41    1
    10    32    29    1
    11    81    80    1
    12    28    29    1
    13    31    30    2
    14    60    59    1
    15    41    38    1
    16    93    92    2
    17    29    30    1
    18    86    83    1
    19    86    87    1
    20    80    78   ar
    21    80    79   ar
    22    26    24   ar
    23    26    25   ar
    24    84    83    1
    25    84    90   am
    26    78    76   ar
    27    89    87    1
    28    91    92    1
    29    91    90    1
    30    24    22   ar
    31    92    94   am
    32    79    77   ar
    33    98    99    1
    34    98    95    1
    35    38    37    1
    36    38    39    1
    37    83    82    1
    38    99   100    1
    39    25    23   ar
    40    59    58    1
    41    76    75   ar
    42    22    21   ar
    43    77    75   ar
    44    94    95    1
    45   100   101    1
    46    75    74    1
    47    95    96    1
    48    58    57    1
    49    23    21   ar
    50    67    66    1
    51    67    68    1
    52    39    44   am
    53    39    40    2
    54    21    20    1
    55    66    65    1
    56   101   102    1
    57    74    71    1
    58    44    45    1
    59    47    46    2
    60    68    69    1
    61    96    97    2
    62    57    56    1
    63    20    17    1
    64    46    45    1
    65    46    52   am
    66    65    62    1
    67     8     6   ar
    68    71    72    1
    69    71    70    1
    70    45    48    1
    71    53    52    1
    72    53    56    1
    73    53    54    1
    74    73    72    2
    75    61    62    1
    76    61    54   am
    77    17    18    1
    78    17    16    1
    79    62    63    1
    80    54    55    2
    81     6     5    1
    82     6     7   ar
    83    48    49    1
    84    48    50    1
    85    18    19    2
    86    12    11    2
    87     5     2    1
    88    49    51    1
    89    64    63    2
    90    16    11   am
    91    11    10    1
    92     4     3    2
    93     2     3    1
    94     2     1    1
    95     3     9   am
    96     9    10    1
    97     9    15    1
    98    10    13    1
    99    15    14    1
   100    13    14    1
