@<TRIPOS>MOLECULE
tmp/2liqA00.pdb
 124 124 0 0 0
SMALL
GASTEIGER

@<TRIPOS>ATOM
      1  N         51.6080   -1.8810   12.8240 N.3    68  TYR68      -0.1241
      2  CA        52.9530   -2.4090   12.5540 C.3    68  TYR68       0.1605
      3  C         53.0020   -3.2600   11.2700 C.2    68  TYR68       0.2264
      4  O         53.9440   -3.1240   10.4860 O.2    68  TYR68      -0.2867
      5  CB        53.4570   -3.1940   13.7730 C.3    68  TYR68       0.0534
      6  CG        54.8730   -3.7120   13.6040 C.ar   68  TYR68      -0.0201
      7  CD1       55.9710   -2.8860   13.9190 C.ar   68  TYR68      -0.0009
      8  CD2       55.0930   -5.0020   13.0810 C.ar   68  TYR68      -0.0009
      9  CE1       57.2870   -3.3450   13.7060 C.ar   68  TYR68       0.0417
     10  CE2       56.4050   -5.4650   12.8700 C.ar   68  TYR68       0.0417
     11  CZ        57.5060   -4.6370   13.1770 C.ar   68  TYR68       0.1957
     12  OH        58.7710   -5.0880   12.9480 O.3    68  TYR68      -0.2866
     13  N         54.4680   -5.4310   26.2330 N.3    88  GLY88      -0.1210
     14  CA        55.2920   -6.5700   25.8170 C.3    88  GLY88       0.1956
     15  C         54.9850   -7.8080   26.6630 C.2    88  GLY88       0.2612
     16  O         54.0300   -7.8120   27.4380 O.2    88  GLY88      -0.2717
     17  N         55.7710   -8.8740   26.5210 N.am   89  TRP89      -0.1962
     18  CA        55.5160  -10.1740   27.1570 C.3    89  TRP89       0.1771
     19  C         56.7390  -10.6180   27.9600 C.2    89  TRP89       0.2620
     20  O         57.8280  -10.7940   27.4120 O.2    89  TRP89      -0.2715
     21  CB        55.1570  -11.1700   26.0460 C.3    89  TRP89       0.0590
     22  CG        54.7040  -12.5590   26.3980 C.ar   89  TRP89       0.0006
     23  CD1       54.4150  -13.0730   27.6180 C.ar   89  TRP89       0.0946
     24  CD2       54.4510  -13.6410   25.4540 C.ar   89  TRP89       0.0152
     25  NE1       54.0170  -14.3930   27.4860 N.ar   89  TRP89      -0.2442
     26  CE2       54.0180  -14.7950   26.1670 C.ar   89  TRP89       0.0810
     27  CE3       54.5400  -13.7450   24.0530 C.ar   89  TRP89       0.0012
     28  CZ2       53.6980  -15.9990   25.5190 C.ar   89  TRP89       0.0191
     29  CZ3       54.2230  -14.9430   23.3860 C.ar   89  TRP89       0.0001
     30  CH2       53.8050  -16.0690   24.1170 C.ar   89  TRP89       0.0015
     31  N         56.5700  -10.8230   29.2690 N.am   90  GLY90      -0.1940
     32  CA        57.6660  -11.1850   30.1800 C.3    90  GLY90       0.2014
     33  C         58.1290  -12.6470   30.0880 C.2    90  GLY90       0.2638
     34  O         58.7960  -13.1250   31.0050 O.2    90  GLY90      -0.2714
     35  N         57.7270  -13.3780   29.0380 N.am   91  ALA91      -0.1977
     36  CA        57.9220  -14.8170   28.7980 C.3    91  ALA91       0.1597
     37  C         57.3770  -15.7780   29.8860 C.2    91  ALA91       0.2287
     38  O         57.4590  -17.0000   29.7450 O.2    91  ALA91      -0.2864
     39  CB        59.3960  -15.0600   28.4620 C.3    91  ALA91       0.0319
     40  N         53.4570   -7.3300   30.1570 N.3    96  VAL96      -0.1245
     41  CA        54.2330   -6.3450   30.9340 C.3    96  VAL96       0.1561
     42  C         54.3320   -5.0170   30.1710 C.2    96  VAL96       0.2260
     43  O         53.9480   -4.9530   29.0040 O.2    96  VAL96      -0.2867
     44  CB        55.6480   -6.8820   31.2660 C.3    96  VAL96       0.0252
     45  CG1       55.6110   -8.1570   32.1200 C.3    96  VAL96       0.0019
     46  CG2       56.4890   -7.1800   30.0150 C.3    96  VAL96       0.0019
     47  N         57.2190   -2.1730   28.8760 N.3    98  LEU98      -0.1245
     48  CA        58.6650   -2.1380   28.6050 C.3    98  LEU98       0.1561
     49  C         59.0080   -1.1210   27.4840 C.2    98  LEU98       0.2260
     50  O         58.1850   -0.9360   26.5800 O.2    98  LEU98      -0.2867
     51  CB        59.0510   -3.5830   28.1990 C.3    98  LEU98       0.0270
     52  CG        60.5510   -3.9210   28.1640 C.3    98  LEU98       0.0019
     53  CD1       61.1780   -3.8960   29.5620 C.3    98  LEU98       0.0001
     54  CD2       60.7500   -5.3340   27.6090 C.3    98  LEU98       0.0001
     55  N         61.0940   -1.7730   21.1670 N.3   101  ASN101     -0.1225
     56  CA        62.0660   -2.4660   20.3210 C.3   101  ASN101      0.1785
     57  C         61.3410   -2.9400   19.0540 C.2   101  ASN101      0.2597
     58  O         61.3850   -2.2570   18.0320 O.2   101  ASN101     -0.2718
     59  CB        62.7090   -3.6040   21.1470 C.3   101  ASN101      0.1169
     60  CG        63.6030   -4.5250   20.3300 C.2   101  ASN101      0.2627
     61  OD1       64.3320   -4.1010   19.4450 O.2   101  ASN101     -0.2716
     62  ND2       63.5610   -5.8170   20.5740 N.am  101  ASN101     -0.0877
     63  N         60.5910   -4.0420   19.1590 N.am  102  ASN102     -0.1960
     64  CA        59.7580   -4.6050   18.0890 C.3   102  ASN102      0.1819
     65  C         58.5540   -5.4080   18.6420 C.2   102  ASN102      0.2621
     66  O         57.9620   -6.2030   17.9190 O.2   102  ASN102     -0.2715
     67  CB        60.6660   -5.4780   17.1880 C.3   102  ASN102      0.1195
     68  CG        61.5730   -4.7150   16.2360 C.2   102  ASN102      0.2630
     69  OD1       62.7770   -4.9230   16.1850 O.2   102  ASN102     -0.2716
     70  ND2       61.0300   -3.8370   15.4260 N.am  102  ASN102     -0.0877
     71  N         58.2040   -5.2770   19.9250 N.am  103  TYR103     -0.1960
     72  CA        57.1290   -6.0650   20.5550 C.3   103  TYR103      0.1771
     73  C         55.7610   -5.6960   19.9530 C.2   103  TYR103      0.2619
     74  O         55.4510   -4.5100   19.8440 O.2   103  TYR103     -0.2715
     75  CB        57.1580   -5.8390   22.0790 C.3   103  TYR103      0.0574
     76  CG        58.5510   -5.8860   22.6900 C.ar  103  TYR103     -0.0198
     77  CD1       59.3630   -7.0220   22.5000 C.ar  103  TYR103     -0.0009
     78  CD2       59.0580   -4.7750   23.3950 C.ar  103  TYR103     -0.0009
     79  CE1       60.6850   -7.0330   22.9840 C.ar  103  TYR103      0.0417
     80  CE2       60.3740   -4.7940   23.8930 C.ar  103  TYR103      0.0417
     81  CZ        61.1940   -5.9230   23.6850 C.ar  103  TYR103      0.1957
     82  OH        62.4770   -5.9440   24.1370 O.3   103  TYR103     -0.2866
     83  N         54.9450   -6.6840   19.5680 N.am  104  VAL104     -0.1963
     84  CA        53.6520   -6.4800   18.8710 C.3   104  VAL104      0.1727
     85  C         52.5550   -7.3900   19.4230 C.2   104  VAL104      0.2616
     86  O         52.8450   -8.4010   20.0600 O.2   104  VAL104     -0.2715
     87  CB        53.7550   -6.7260   17.3460 C.3   104  VAL104      0.0290
     88  CG1       54.6040   -5.6770   16.6300 C.3   104  VAL104      0.0023
     89  CG2       54.2990   -8.1170   16.9990 C.3   104  VAL104      0.0023
     90  N         51.3000   -7.0680   19.1070 N.am  105  TRP105     -0.1974
     91  CA        50.1170   -7.8680   19.4360 C.3   105  TRP105      0.1640
     92  C         49.1210   -7.8790   18.2730 C.2   105  TRP105      0.2290
     93  O         49.0860   -6.9550   17.4560 O.2   105  TRP105     -0.2864
     94  CB        49.4680   -7.3150   20.7130 C.3   105  TRP105      0.0576
     95  CG        50.3570   -7.3860   21.9150 C.ar  105  TRP105      0.0006
     96  CD1       51.0840   -6.3650   22.4240 C.ar  105  TRP105      0.0946
     97  CD2       50.6900   -8.5570   22.7220 C.ar  105  TRP105      0.0152
     98  NE1       51.8510   -6.8210   23.4770 N.ar  105  TRP105     -0.2442
     99  CE2       51.6270   -8.1610   23.7230 C.ar  105  TRP105      0.0810
    100  CE3       50.2920   -9.9130   22.7100 C.ar  105  TRP105      0.0012
    101  CZ2       52.1100   -9.0620   24.6820 C.ar  105  TRP105      0.0191
    102  CZ3       50.7950  -10.8310   23.6520 C.ar  105  TRP105      0.0001
    103  CH2       51.6940  -10.4030   24.6430 C.ar  105  TRP105      0.0015
    104  N         48.6620  -13.1680   20.7310 N.3   118  ASP118     -0.1225
    105  CA        50.0730  -13.1650   20.3360 C.3   118  ASP118      0.1805
    106  C         50.2790  -13.2730   18.8070 C.2   118  ASP118      0.2598
    107  O         49.3790  -13.6730   18.0580 O.2   118  ASP118     -0.2718
    108  CB        50.7510  -14.3450   21.0440 C.3   118  ASP118      0.1424
    109  CG        50.3030  -15.6810   20.4340 C.2   118  ASP118      0.3668
    110  OD1       49.1410  -16.0950   20.6420 O.co2 118  ASP118     -0.2456
    111  OD2       51.1020  -16.2690   19.6760 O.co2 118  ASP118     -0.2456
    112  N         51.4990  -12.9830   18.3430 N.am  119  GLY119     -0.1942
    113  CA        51.9090  -13.0610   16.9330 C.3   119  GLY119      0.2014
    114  C         51.8890  -14.4530   16.2680 C.2   119  GLY119      0.2638
    115  O         52.1390  -14.5360   15.0630 O.2   119  GLY119     -0.2714
    116  N         51.5850  -15.5370   17.0010 N.am  120  LYS120     -0.1977
    117  CA        51.4930  -16.9310   16.5100 C.3   120  LYS120      0.1596
    118  C         50.1100  -17.5630   16.7590 C.2   120  LYS120      0.2287
    119  O         49.9080  -18.7290   16.4120 O.2   120  LYS120     -0.2864
    120  CB        52.5850  -17.8360   17.1360 C.3   120  LYS120      0.0298
    121  CG        54.0130  -17.2660   17.2350 C.3   120  LYS120      0.0038
    122  CD        54.2360  -16.5140   18.5550 C.3   120  LYS120      0.0206
    123  CE        55.6790  -16.0460   18.7700 C.3   120  LYS120      0.1093
    124  NZ        56.1800  -15.1620   17.6900 N.3   120  LYS120     -0.1314
@<TRIPOS>BOND
     1     4     3    2
     2     3     2    1
     3     2     1    1
     4     2     5    1
     5    10     8   ar
     6    10    11   ar
     7    12    11    1
     8     8     6   ar
     9    11     9   ar
    10     6     5    1
    11     6     7   ar
    12     9     7   ar
    13   115   114    2
    14    70    68   am
    15    69    68    2
    16    68    67    1
    17   114   113    1
    18   114   116   am
    19   119   118    2
    20   117   118    1
    21   117   116    1
    22   117   120    1
    23    88    87    1
    24   113   112    1
    25    89    87    1
    26   120   121    1
    27    67    64    1
    28   121   122    1
    29    87    84    1
    30    93    92    2
    31   124   123    1
    32    66    65    2
    33    58    57    2
    34   107   106    2
    35    64    65    1
    36    64    63    1
    37    92    91    1
    38   112   106   am
    39   122   123    1
    40    65    71   am
    41   106   105    1
    42    84    85    1
    43    84    83    1
    44    57    63   am
    45    57    56    1
    46    90    85   am
    47    90    91    1
    48    85    86    2
    49    91    94    1
    50    61    60    2
    51    83    73   am
    52   111   109   ar
    53    74    73    2
    54    71    72    1
    55    73    72    1
    56    56    59    1
    57    56    55    1
    58    60    62   am
    59    60    59    1
    60   105   104    1
    61   105   108    1
    62   109   110   ar
    63   109   108    1
    64    72    75    1
    65    94    95    1
    66    95    96   ar
    67    95    97   ar
    68    75    76    1
    69    96    98   ar
    70    77    76   ar
    71    77    79   ar
    72    76    78   ar
    73   100    97   ar
    74   100   102   ar
    75    97    99   ar
    76    79    81   ar
    77    29    27   ar
    78    29    30   ar
    79    78    80   ar
    80    98    99   ar
    81   102   103   ar
    82    81    80   ar
    83    81    82    1
    84    99   101   ar
    85    27    24   ar
    86    30    28   ar
    87   103   101   ar
    88    24    26   ar
    89    24    22   ar
    90    28    26   ar
    91    14    13    1
    92    14    15    1
    93    21    22    1
    94    21    18    1
    95    26    25   ar
    96    22    23   ar
    97    17    15   am
    98    17    18    1
    99    50    49    2
   100    15    16    2
   101    18    19    1
   102    20    19    2
   103    49    48    1
   104    25    23   ar
   105    54    52    1
   106    19    31   am
   107    52    51    1
   108    52    53    1
   109    51    48    1
   110    39    36    1
   111    48    47    1
   112    36    35    1
   113    36    37    1
   114    43    42    2
   115    35    33   am
   116    31    32    1
   117    38    37    2
   118    46    44    1
   119    33    32    1
   120    33    34    2
   121    40    41    1
   122    42    41    1
   123    41    44    1
   124    44    45    1
