@<TRIPOS>MOLECULE
tmp/2lkdA00.pdb
 98 93 0 0 0
SMALL
GASTEIGER

@<TRIPOS>ATOM
      1  N         -3.6170   -4.7850   12.5730 N.3    17  VAL17      -0.1231
      2  CA        -4.4850   -4.4030   13.6680 C.3    17  VAL17       0.1692
      3  C         -3.8650   -3.2460   14.4420 C.2    17  VAL17       0.2592
      4  O         -2.6540   -3.0610   14.3970 O.2    17  VAL17      -0.2718
      5  CB        -4.6940   -5.6200   14.5810 C.3    17  VAL17       0.0266
      6  CG1       -3.3560   -6.1670   15.0450 C.3    17  VAL17       0.0020
      7  CG2       -5.5470   -5.3090   15.7770 C.3    17  VAL17       0.0020
      8  N         -4.7030   -2.4480   15.1100 N.am   18  ASP18      -0.1974
      9  CA        -4.2490   -1.2670   15.8530 C.3    18  ASP18       0.1709
     10  C         -3.8940   -0.1330   14.8930 C.2    18  ASP18       0.2293
     11  O         -3.8440    1.0360   15.2750 O.2    18  ASP18      -0.2864
     12  CB        -3.0650   -1.6180   16.7640 C.3    18  ASP18       0.1436
     13  CG        -2.4690   -0.4130   17.4680 C.2    18  ASP18       0.3671
     14  OD1       -3.0260    0.0090   18.5050 O.co2  18  ASP18      -0.2456
     15  OD2       -1.4320    0.1070   16.9970 O.co2  18  ASP18      -0.2456
     16  N         -5.9030    0.2970   12.6440 N.3    20  GLY20      -0.1210
     17  CA        -7.2520    0.7380   12.4000 C.3    20  GLY20       0.1956
     18  C         -8.0570   -0.1960   11.5270 C.2    20  GLY20       0.2612
     19  O         -8.7070    0.2570   10.5900 O.2    20  GLY20      -0.2717
     20  N         -8.0200   -1.4930   11.8220 N.am   21  LYS21      -0.1965
     21  CA        -8.8420   -2.4530   11.1020 C.3    21  LYS21       0.1728
     22  C        -10.3090   -2.0150   11.0490 C.2    21  LYS21       0.2617
     23  O        -10.8390   -1.7020    9.9840 O.2    21  LYS21      -0.2715
     24  CB        -8.7430   -3.8090   11.7750 C.3    21  LYS21       0.0311
     25  CG        -8.6710   -4.9530   10.7940 C.3    21  LYS21       0.0038
     26  CD        -7.3770   -4.9000   10.0080 C.3    21  LYS21       0.0206
     27  CE        -7.3550   -5.9450    8.9110 C.3    21  LYS21       0.1093
     28  NZ        -7.4610   -7.3270    9.4490 N.3    21  LYS21      -0.1314
     29  N        -10.9550   -1.9920   12.2060 N.am   22  THR22      -0.1937
     30  CA       -12.3650   -1.6440   12.2930 C.3    22  THR22       0.2028
     31  C        -12.5510   -0.1540   12.5960 C.2    22  THR22       0.2643
     32  O        -13.5270    0.4650   12.1640 O.2    22  THR22      -0.2714
     33  CB       -13.0550   -2.4940   13.3810 C.3    22  THR22       0.1808
     34  OG1      -12.7170   -3.8750   13.1950 O.3    22  THR22      -0.2208
     35  CG2      -14.5650   -2.3370   13.3330 C.3    22  THR22       0.0379
     36  N        -11.5990    0.4270   13.3230 N.am   23  THR23      -0.1936
     37  CA       -11.6600    1.8360   13.6920 C.3    23  THR23       0.2028
     38  C        -11.7460    2.7620   12.4770 C.2    23  THR23       0.2642
     39  O        -12.3060    3.8450   12.5690 O.2    23  THR23      -0.2714
     40  CB       -10.4540    2.2400   14.5510 C.3    23  THR23       0.1808
     41  OG1       -9.4220    1.2460   14.4440 O.3    23  THR23      -0.2208
     42  CG2      -10.8650    2.4120   16.0030 C.3    23  THR23       0.0379
     43  N        -11.2140    2.3300   11.3350 N.am   24  LEU24      -0.1977
     44  CA       -11.2550    3.1530   10.1280 C.3    24  LEU24       0.1596
     45  C        -12.6160    3.0860    9.4740 C.2    24  LEU24       0.2287
     46  O        -13.0230    4.0100    8.7830 O.2    24  LEU24      -0.2864
     47  CB       -10.1860    2.7230    9.1490 C.3    24  LEU24       0.0297
     48  CG        -8.9220    3.5920    9.1280 C.3    24  LEU24       0.0022
     49  CD1       -8.2060    3.5420   10.4680 C.3    24  LEU24       0.0001
     50  CD2       -7.9930    3.1510    8.0080 C.3    24  LEU24       0.0001
     51  N         -1.4270    5.3880    8.2920 N.3   115  ASN115     -0.1225
     52  CA        -2.2490    6.1200    9.2540 C.3   115  ASN115      0.1785
     53  C         -1.3630    6.5490   10.3690 C.2   115  ASN115      0.2597
     54  O         -0.1640    6.2590   10.3450 O.2   115  ASN115     -0.2718
     55  CB        -3.4210    5.2570    9.7620 C.3   115  ASN115      0.1169
     56  CG        -3.1070    4.4200   10.9860 C.2   115  ASN115      0.2627
     57  OD1       -2.0140    3.9240   11.1510 O.2   115  ASN115     -0.2716
     58  ND2       -4.0750    4.2700   11.8650 N.am  115  ASN115     -0.0877
     59  N         -1.9290    7.2630   11.3180 N.am  116  LYS116     -0.1980
     60  CA        -1.1730    7.6960   12.4520 C.3   116  LYS116      0.1596
     61  C         -0.1850    8.7700   12.0410 C.2   116  LYS116      0.2287
     62  O          0.8660    8.9340   12.6560 O.2   116  LYS116     -0.2864
     63  CB        -0.4560    6.4990   13.0810 C.3   116  LYS116      0.0298
     64  CG        -1.3750    5.5890   13.8640 C.3   116  LYS116      0.0038
     65  CD        -0.5830    4.6400   14.7390 C.3   116  LYS116      0.0206
     66  CE        -1.4030    3.4480   15.2020 C.3   116  LYS116      0.1093
     67  NZ        -0.5860    2.5180   16.0270 N.3   116  LYS116     -0.1314
     68  N         -1.0640   11.6160   12.2570 N.3   118  ASP118     -0.1225
     69  CA        -1.3940   12.5160   13.3460 C.3   118  ASP118      0.1805
     70  C         -0.3080   12.4510   14.4100 C.2   118  ASP118      0.2597
     71  O         -0.0500   13.4280   15.1140 O.2   118  ASP118     -0.2718
     72  CB        -2.7440   12.1200   13.9500 C.3   118  ASP118      0.1424
     73  CG        -2.8730   10.6190   14.1390 C.2   118  ASP118      0.3668
     74  OD1       -3.2960    9.9330   13.1780 O.co2 118  ASP118     -0.2456
     75  OD2       -2.5470   10.1160   15.2360 O.co2 118  ASP118     -0.2456
     76  N          0.3170   11.2830   14.5280 N.am  119  LYS119     -0.1979
     77  CA         1.4470   11.0970   15.4150 C.3   119  LYS119      0.1596
     78  C          2.6690   11.8070   14.8590 C.2   119  LYS119      0.2287
     79  O          2.9880   11.6690   13.6820 O.2   119  LYS119     -0.2864
     80  CB         1.7600    9.6030   15.5690 C.3   119  LYS119      0.0298
     81  CG         0.7000    8.8220   16.3190 C.3   119  LYS119      0.0038
     82  CD         1.1000    7.3660   16.5040 C.3   119  LYS119      0.0206
     83  CE         2.4620    7.2250   17.1770 C.3   119  LYS119      0.1093
     84  NZ         2.4730    7.7550   18.5650 N.3   119  LYS119     -0.1314
     85  N         -6.2060    8.8470   10.3020 N.3   152  ALA152     -0.1231
     86  CA        -7.6040    8.6340   10.5870 C.3   152  ALA152      0.1694
     87  C         -7.9300    9.1570   11.9700 C.2   152  ALA152      0.2591
     88  O         -9.0920    9.2490   12.3510 O.2   152  ALA152     -0.2718
     89  CB        -7.9550    7.1720   10.4610 C.3   152  ALA152      0.0304
     90  N         -6.8910    9.5060   12.7240 N.am  153  LYS153     -0.1980
     91  CA        -7.1070   10.1240   14.0270 C.3   153  LYS153      0.1596
     92  C         -7.3640   11.6230   13.9160 C.2   153  LYS153      0.2287
     93  O         -8.2960   12.1260   14.5380 O.2   153  LYS153     -0.2864
     94  CB        -5.9730    9.8390   14.9940 C.3   153  LYS153      0.0298
     95  CG        -6.2440    8.6400   15.8890 C.3   153  LYS153      0.0038
     96  CD        -6.1450    9.0000   17.3640 C.3   153  LYS153      0.0206
     97  CE        -4.7340    9.4160   17.7490 C.3   153  LYS153      0.1093
     98  NZ        -4.6100    9.6760   19.2080 N.3   153  LYS153     -0.1314
@<TRIPOS>BOND
     1    50    48    1
     2    51    52    1
     3    46    45    2
     4    27    28    1
     5    27    26    1
     6    48    47    1
     7    48    49    1
     8    47    44    1
     9    52    55    1
    10    52    53    1
    11    45    44    1
    12    55    56    1
    13    23    22    2
    14    26    25    1
    15    44    43    1
    16    85    86    1
    17    54    53    2
    18    53    59   am
    19    89    86    1
    20    86    87    1
    21    19    18    2
    22    25    24    1
    23    56    57    2
    24    56    58   am
    25    22    21    1
    26    22    29   am
    27    21    24    1
    28    21    20    1
    29    59    60    1
    30    43    38   am
    31    18    20   am
    32    18    17    1
    33    87    88    2
    34    87    90   am
    35    61    60    1
    36    61    62    2
    37    32    31    2
    38    29    30    1
    39    68    69    1
    40    30    31    1
    41    30    33    1
    42    17    16    1
    43    60    63    1
    44    38    39    2
    45    38    37    1
    46     1     2    1
    47    31    36   am
    48    90    91    1
    49    63    64    1
    50    74    73   ar
    51    34    33    1
    52    36    37    1
    53    35    33    1
    54    69    72    1
    55    69    70    1
    56     2     3    1
    57     2     5    1
    58    79    78    2
    59    37    40    1
    60    64    65    1
    61    92    91    1
    62    92    93    2
    63    72    73    1
    64    91    94    1
    65    73    75   ar
    66     4     3    2
    67    70    76   am
    68    70    71    2
    69     3     8   am
    70    41    40    1
    71    76    77    1
    72    40    42    1
    73     5     6    1
    74     5     7    1
    75    65    66    1
    76    78    77    1
    77    10    11    2
    78    10     9    1
    79    94    95    1
    80     8     9    1
    81    66    67    1
    82    77    80    1
    83    80    81    1
    84     9    12    1
    85    95    96    1
    86    81    82    1
    87    82    83    1
    88    12    13    1
    89    15    13   ar
    90    83    84    1
    91    96    97    1
    92    13    14   ar
    93    97    98    1
