@<TRIPOS>MOLECULE
tmp/2lkiA00.pdb
 82 76 0 0 0
SMALL
GASTEIGER

@<TRIPOS>ATOM
      1  N         -4.9100    4.6720    7.1160 N.3    31  LEU31      -0.1245
      2  CA        -4.7110    6.0560    7.5880 C.3    31  LEU31       0.1561
      3  C         -5.8950    6.4620    8.5020 C.2    31  LEU31       0.2260
      4  O         -7.0210    6.6310    8.0280 O.2    31  LEU31      -0.2867
      5  CB        -4.5590    7.0130    6.3520 C.3    31  LEU31       0.0270
      6  CG        -3.7310    8.3310    6.5650 C.3    31  LEU31       0.0019
      7  CD1       -3.3680    8.9810    5.2160 C.3    31  LEU31       0.0001
      8  CD2       -4.4460    9.3430    7.4840 C.3    31  LEU31       0.0001
      9  N          3.9540   10.3500   10.3170 N.3    39  SER39      -0.1202
     10  CA         4.7930   11.0980    9.3430 C.3    39  SER39       0.2020
     11  C          5.9760   10.2750    8.7360 C.2    39  SER39       0.2618
     12  O          5.9170    9.8320    7.5720 O.2    39  SER39      -0.2717
     13  CB         5.3130   12.3380   10.1110 C.3    39  SER39       0.2103
     14  OG         6.1180   13.2000    9.3150 O.3    39  SER39      -0.2182
     15  N          7.0280   10.0130    9.5260 N.am   40  MET40      -0.1979
     16  CA         8.1820    9.2140    9.0490 C.3    40  MET40       0.1605
     17  C          7.7900    7.7350    8.8750 C.2    40  MET40       0.2287
     18  O          8.4430    6.9900    8.1430 O.2    40  MET40      -0.2864
     19  CB         9.3780    9.3530   10.0120 C.3    40  MET40       0.0413
     20  CG        10.0180   10.7500   10.0410 C.3    40  MET40       0.0598
     21  SD        10.8170   11.1760    8.4770 S.3    40  MET40      -0.1393
     22  CE        11.5160   12.7850    8.8440 C.3    40  MET40       0.0692
     23  N          4.8930    6.7370    7.4440 N.3    42  VAL42      -0.1231
     24  CA         4.3790    6.5710    6.0640 C.3    42  VAL42       0.1692
     25  C          5.5470    6.4610    5.0920 C.2    42  VAL42       0.2591
     26  O          5.4960    5.6590    4.1650 O.2    42  VAL42      -0.2718
     27  CB         3.3650    7.6740    5.5380 C.3    42  VAL42       0.0266
     28  CG1        2.0760    7.6980    6.3670 C.3    42  VAL42       0.0020
     29  CG2        3.9870    9.0890    5.4410 C.3    42  VAL42       0.0020
     30  N          6.6190    7.2420    5.3370 N.am   43  VAL43      -0.1980
     31  CA         7.8400    7.1580    4.4990 C.3    43  VAL43       0.1595
     32  C          8.4230    5.7320    4.5510 C.2    43  VAL43       0.2287
     33  O          8.7890    5.1470    3.5240 O.2    43  VAL43      -0.2864
     34  CB         8.9360    8.1780    4.9620 C.3    43  VAL43       0.0276
     35  CG1       10.1190    8.2480    3.9670 C.3    43  VAL43       0.0022
     36  CG2        8.3170    9.5540    5.2000 C.3    43  VAL43       0.0022
     37  N          6.3090    3.0330    2.6930 N.3    46  ILE46      -0.1245
     38  CA         6.4880    3.2040    1.2280 C.3    46  ILE46       0.1561
     39  C          7.7530    2.4750    0.7870 C.2    46  ILE46       0.2260
     40  O          7.7020    1.6310   -0.1070 O.2    46  ILE46      -0.2867
     41  CB         6.5990    4.7160    0.7880 C.3    46  ILE46       0.0252
     42  CG1        5.3060    5.5040    1.1460 C.3    46  ILE46       0.0019
     43  CG2        6.9100    4.8450   -0.7340 C.3    46  ILE46       0.0019
     44  CD1        5.4470    7.0100    1.0720 C.3    46  ILE46       0.0001
     45  N          6.0640    9.0980   -7.6010 N.3    59  ASP59      -0.1239
     46  CA         5.8130   10.1910   -6.6260 C.3    59  ASP59       0.1674
     47  C          4.4380   10.8560   -6.8410 C.2    59  ASP59       0.2266
     48  O          3.7090   11.1230   -5.8770 O.2    59  ASP59      -0.2867
     49  CB         6.9400   11.2580   -6.7120 C.3    59  ASP59       0.1410
     50  CG         6.8180   12.3640   -5.6430 C.2    59  ASP59       0.3668
     51  OD1        7.2750   12.1560   -4.5000 O.co2  59  ASP59      -0.2456
     52  OD2        6.2580   13.4430   -5.9270 O.co2  59  ASP59      -0.2456
     53  N          1.7540    8.6360   -5.3320 N.3    62  ILE62      -0.1231
     54  CA         1.8030    8.4540   -3.8630 C.3    62  ILE62       0.1692
     55  C          1.1790    9.6880   -3.1920 C.2    62  ILE62       0.2593
     56  O          1.7080   10.7970   -3.3080 O.2    62  ILE62      -0.2718
     57  CB         3.2520    8.2450   -3.2820 C.3    62  ILE62       0.0266
     58  CG1        4.0110    7.1080   -4.0140 C.3    62  ILE62       0.0019
     59  CG2        3.1790    7.9280   -1.7670 C.3    62  ILE62       0.0020
     60  CD1        5.4400    6.8800   -3.5570 C.3    62  ILE62       0.0001
     61  N          0.0460    9.4870   -2.5290 N.am   63  SER63      -0.1938
     62  CA        -0.6660   10.5360   -1.7890 C.3    63  SER63       0.2055
     63  C         -1.1200    9.9780   -0.4320 C.2    63  SER63       0.2642
     64  O         -0.9410    8.7870   -0.1500 O.2    63  SER63      -0.2714
     65  CB        -1.8750   11.0160   -2.6370 C.3    63  SER63       0.2130
     66  OG        -2.5520   12.1100   -2.0420 O.3    63  SER63      -0.2179
     67  N         -1.7010   10.8490    0.4090 N.am   64  ALA64      -0.1977
     68  CA        -2.3660   10.4230    1.6570 C.3    64  ALA64       0.1597
     69  C         -3.5900    9.5500    1.3260 C.2    64  ALA64       0.2287
     70  O         -3.8890    8.5790    2.0340 O.2    64  ALA64      -0.2864
     71  CB        -2.7580   11.6420    2.5010 C.3    64  ALA64       0.0319
     72  N         -3.0530    5.7170    1.0680 N.3    67  PHE67      -0.1241
     73  CA        -3.0340    4.9220    2.3140 C.3    67  PHE67       0.1605
     74  C         -4.3750    4.9600    3.0470 C.2    67  PHE67       0.2264
     75  O         -4.4340    4.5660    4.2170 O.2    67  PHE67      -0.2867
     76  CB        -1.8780    5.4000    3.2340 C.3    67  PHE67       0.0534
     77  CG        -0.4970    5.1110    2.6430 C.ar   67  PHE67      -0.0203
     78  CD1        0.0760    5.9780    1.7100 C.ar   67  PHE67      -0.0042
     79  CD2        0.2020    3.9530    2.9820 C.ar   67  PHE67      -0.0042
     80  CE1        1.3040    5.6990    1.1490 C.ar   67  PHE67      -0.0003
     81  CE2        1.4270    3.6740    2.4150 C.ar   67  PHE67      -0.0003
     82  CZ         1.9760    4.5450    1.4980 C.ar   67  PHE67      -0.0000
@<TRIPOS>BOND
     1    45    46    1
     2    47    46    1
     3    47    48    2
     4    49    46    1
     5    49    50    1
     6    52    50   ar
     7    50    51   ar
     8    53    54    1
     9    58    60    1
    10    58    57    1
    11    54    57    1
    12    54    55    1
    13    56    55    2
    14    57    59    1
    15    55    61   am
    16    65    66    1
    17    65    62    1
    18    61    62    1
    19    62    63    1
    20    43    41    1
    21    63    64    2
    22    63    67   am
    23    40    39    2
    24    67    68    1
    25    39    38    1
    26    41    42    1
    27    41    38    1
    28    72    73    1
    29    44    42    1
    30    80    82   ar
    31    80    78   ar
    32    38    37    1
    33    69    68    1
    34    69    70    2
    35    82    81   ar
    36    68    71    1
    37    78    77   ar
    38    73    74    1
    39    73    76    1
    40    81    79   ar
    41    77    79   ar
    42    77    76    1
    43    74    75    2
    44    33    32    2
    45    35    34    1
    46    26    25    2
    47    31    32    1
    48    31    34    1
    49    31    30    1
    50    34    36    1
    51    25    30   am
    52    25    24    1
    53     7     6    1
    54    29    27    1
    55    27    24    1
    56    27    28    1
    57    24    23    1
    58     5     6    1
    59     5     2    1
    60     6     8    1
    61     1     2    1
    62    12    11    2
    63     2     3    1
    64     4     3    2
    65    18    17    2
    66    21    22    1
    67    21    20    1
    68    11    10    1
    69    11    15   am
    70    17    16    1
    71    16    15    1
    72    16    19    1
    73    14    13    1
    74    10    13    1
    75    10     9    1
    76    19    20    1
