@<TRIPOS>MOLECULE
tmp/2lkoA00.pdb
 118 109 0 0 0
SMALL
GASTEIGER

@<TRIPOS>ATOM
      1  N         -4.7120    8.1310    1.0590 N.3    19  VAL19      -0.1245
      2  CA        -5.0940    7.6610   -0.3070 C.3    19  VAL19       0.1561
      3  C         -6.1000    8.6530   -0.8850 C.2    19  VAL19       0.2260
      4  O         -6.8920    9.2300   -0.1660 O.2    19  VAL19      -0.2867
      5  CB        -5.7350    6.2660   -0.2230 C.3    19  VAL19       0.0252
      6  CG1       -6.8710    6.2840    0.8120 C.3    19  VAL19       0.0019
      7  CG2       -6.3150    5.8610   -1.5880 C.3    19  VAL19       0.0019
      8  N         -8.5680    9.1400   -4.5460 N.3    21  LYS21      -0.1245
      9  CA        -8.9440    8.7120   -5.9310 C.3    21  LYS21       0.1561
     10  C         -9.8660    9.7760   -6.5380 C.2    21  LYS21       0.2260
     11  O        -10.5190   10.5040   -5.8210 O.2    21  LYS21      -0.2867
     12  CB        -9.7060    7.3780   -5.8380 C.3    21  LYS21       0.0271
     13  CG        -8.7340    6.1950   -5.6470 C.3    21  LYS21       0.0035
     14  CD        -8.4530    5.9860   -4.1510 C.3    21  LYS21       0.0206
     15  CE        -9.6300    5.2450   -3.4770 C.3    21  LYS21       0.1093
     16  NZ        -9.9600    5.9250   -2.1930 N.3    21  LYS21      -0.1314
     17  N        -12.4900    9.1690   -8.0710 N.3    23  LYS23      -0.1231
     18  CA       -13.8570    8.6310   -7.9260 C.3    23  LYS23       0.1693
     19  C        -14.6100    8.7180   -9.2450 C.2    23  LYS23       0.2591
     20  O        -14.6420    9.7360   -9.9060 O.2    23  LYS23      -0.2718
     21  CB       -14.5850    9.4240   -6.8540 C.3    23  LYS23       0.0285
     22  CG       -13.6850    9.6000   -5.6250 C.3    23  LYS23       0.0035
     23  CD       -13.1980    8.2360   -5.1280 C.3    23  LYS23       0.0206
     24  CE       -12.5400    8.3940   -3.7570 C.3    23  LYS23       0.1093
     25  NZ       -11.3730    9.3110   -3.8770 N.3    23  LYS23      -0.1314
     26  N        -15.2150    7.6340   -9.6160 N.am   24  LYS24      -0.1980
     27  CA       -15.9890    7.5840  -10.8850 C.3    24  LYS24       0.1596
     28  C        -17.3180    8.3240  -10.6740 C.2    24  LYS24       0.2287
     29  O        -17.7380    9.1110  -11.4980 O.2    24  LYS24      -0.2864
     30  CB       -16.2350    6.1000  -11.2910 C.3    24  LYS24       0.0298
     31  CG       -15.5820    5.1580  -10.2660 C.3    24  LYS24       0.0038
     32  CD       -15.6690    3.7090  -10.7470 C.3    24  LYS24       0.0206
     33  CE       -15.0540    2.7890   -9.6840 C.3    24  LYS24       0.1093
     34  NZ       -14.7550    1.4590  -10.2880 N.3    24  LYS24      -0.1314
     35  N        -18.1830    9.8770   -4.2090 N.3    27  LEU27      -0.1231
     36  CA       -17.4400    9.4550   -2.9890 C.3    27  LEU27       0.1693
     37  C        -16.7860   10.6800   -2.3470 C.2    27  LEU27       0.2591
     38  O        -17.2110   11.7970   -2.5640 O.2    27  LEU27      -0.2718
     39  CB       -16.3930    8.4050   -3.3720 C.3    27  LEU27       0.0284
     40  CG       -17.0410    7.0130   -3.4340 C.3    27  LEU27       0.0019
     41  CD1      -18.3110    7.0700   -4.2880 C.3    27  LEU27       0.0001
     42  CD2      -16.0600    6.0210   -4.0640 C.3    27  LEU27       0.0001
     43  N        -15.7790   10.4810   -1.5370 N.am   28  LYS28      -0.1980
     44  CA       -15.1160   11.6460   -0.8510 C.3    28  LYS28       0.1596
     45  C        -13.5780   11.5130   -0.8610 C.2    28  LYS28       0.2287
     46  O        -12.8770   12.4560   -0.5520 O.2    28  LYS28      -0.2864
     47  CB       -15.6430   11.7750    0.6030 C.3    28  LYS28       0.0298
     48  CG       -15.9490   10.3930    1.2340 C.3    28  LYS28       0.0038
     49  CD       -14.6430    9.6980    1.7160 C.3    28  LYS28       0.0206
     50  CE       -14.5340    8.2820    1.1370 C.3    28  LYS28       0.1093
     51  NZ       -13.2050    7.7110    1.4890 N.3    28  LYS28      -0.1314
     52  N         -8.6310    9.5860    2.8470 N.3    31  LYS31      -0.1245
     53  CA        -9.0160    8.6920    3.9760 C.3    31  LYS31       0.1561
     54  C         -7.7800    8.0080    4.5620 C.2    31  LYS31       0.2260
     55  O         -6.8680    7.6170    3.8630 O.2    31  LYS31      -0.2867
     56  CB        -9.9870    7.6330    3.4460 C.3    31  LYS31       0.0271
     57  CG       -10.5010    6.7080    4.5820 C.3    31  LYS31       0.0035
     58  CD       -10.6370    5.2670    4.0730 C.3    31  LYS31       0.0206
     59  CE       -11.7310    5.1910    3.0010 C.3    31  LYS31       0.1093
     60  NZ       -11.2100    5.7320    1.7140 N.3    31  LYS31      -0.1314
     61  N         -6.4300    4.7610    6.1830 N.3    33  TYR33      -0.1241
     62  CA        -6.7830    3.3240    6.4130 C.3    33  TYR33       0.1605
     63  C         -5.5020    2.4950    6.5250 C.2    33  TYR33       0.2264
     64  O         -4.5070    2.7730    5.8790 O.2    33  TYR33      -0.2867
     65  CB        -7.6760    2.8110    5.2700 C.3    33  TYR33       0.0534
     66  CG        -6.8600    2.5030    4.0280 C.ar   33  TYR33      -0.0201
     67  CD1       -6.0970    3.5080    3.4190 C.ar   33  TYR33      -0.0009
     68  CD2       -6.8810    1.2130    3.4780 C.ar   33  TYR33      -0.0009
     69  CE1       -5.3600    3.2220    2.2630 C.ar   33  TYR33       0.0417
     70  CE2       -6.1420    0.9300    2.3260 C.ar   33  TYR33       0.0417
     71  CZ        -5.3820    1.9340    1.7180 C.ar   33  TYR33       0.1957
     72  OH        -4.6620    1.6570    0.5760 O.3    33  TYR33      -0.2866
     73  N         -8.8890   -4.7170    4.6270 N.3    44  CYS44      -0.1235
     74  CA        -8.9150   -3.2330    4.8340 C.3    44  CYS44       0.1677
     75  C         -9.8210   -2.8570    6.0090 C.2    44  CYS44       0.2270
     76  O        -10.9740   -3.2320    6.0660 O.2    44  CYS44      -0.2867
     77  CB        -9.4280   -2.5700    3.5490 C.3    44  CYS44       0.0956
     78  SG        -9.9060   -0.8540    3.8820 S.3    44  CYS44      -0.0801
     79  N        -11.0380    0.6110    8.3520 N.3    46  LYS46      -0.1245
     80  CA       -10.9480    2.0960    8.5160 C.3    46  LYS46       0.1561
     81  C        -11.0740    2.4150   10.0010 C.2    46  LYS46       0.2260
     82  O        -10.7390    3.4900   10.4580 O.2    46  LYS46      -0.2867
     83  CB       -12.0910    2.7700    7.7530 C.3    46  LYS46       0.0271
     84  CG       -12.1250    2.2420    6.3160 C.3    46  LYS46       0.0035
     85  CD       -13.3120    2.8590    5.5600 C.3    46  LYS46       0.0206
     86  CE       -13.6410    1.9980    4.3400 C.3    46  LYS46       0.1093
     87  NZ       -14.7570    2.6220    3.5720 N.3    46  LYS46      -0.1314
     88  N        -14.0060   -3.3720    5.5000 N.3    56  ALA56      -0.1231
     89  CA       -14.9530   -2.9750    4.4200 C.3    56  ALA56       0.1694
     90  C        -14.5320   -3.6180    3.0960 C.2    56  ALA56       0.2592
     91  O        -15.3620   -4.0610    2.3270 O.2    56  ALA56      -0.2718
     92  CB       -14.9360   -1.4540    4.2730 C.3    56  ALA56       0.0304
     93  N        -13.2480   -3.6660    2.8210 N.am   57  HIS57      -0.1976
     94  CA       -12.7590   -4.2730    1.5380 C.3    57  HIS57       0.1656
     95  C        -11.8180   -5.4440    1.8560 C.2    57  HIS57       0.2291
     96  O        -10.9010   -5.3250    2.6450 O.2    57  HIS57      -0.2864
     97  CB       -12.0070   -3.1830    0.7240 C.3    57  HIS57       0.0771
     98  CG       -12.7580   -2.8510   -0.5440 C.ar   57  HIS57       0.0820
     99  ND1      -12.9700   -1.5430   -0.9600 N.ar   57  HIS57      -0.2267
    100  CD2      -13.3510   -3.6470   -1.4940 C.ar   57  HIS57       0.1154
    101  CE1      -13.6640   -1.5920   -2.1130 C.ar   57  HIS57       0.1986
    102  NE2      -13.9200   -2.8490   -2.4790 N.ar   57  HIS57      -0.2212
    103  N         -7.6350    0.7820  -12.1000 N.3    90  ASN90      -0.1240
    104  CA        -7.9490    1.5430  -10.8580 C.3    90  ASN90       0.1653
    105  C         -6.8080    2.5160  -10.5800 C.2    90  ASN90       0.2266
    106  O         -5.7970    2.1540  -10.0140 O.2    90  ASN90      -0.2867
    107  CB        -8.0830    0.5680   -9.6840 C.3    90  ASN90       0.1155
    108  CG        -9.4550   -0.1080   -9.7270 C.2    90  ASN90       0.2627
    109  OD1      -10.4640    0.5500   -9.8850 O.2    90  ASN90      -0.2716
    110  ND2       -9.5330   -1.4020   -9.5930 N.am   90  ASN90      -0.0877
    111  N         -4.8370    4.8340   -8.5460 N.3    92  ILE92      -0.1245
    112  CA        -4.7730    5.1470   -7.0950 C.3    92  ILE92       0.1561
    113  C         -3.3770    5.6560   -6.7770 C.2    92  ILE92       0.2260
    114  O         -2.3950    5.1990   -7.3230 O.2    92  ILE92      -0.2867
    115  CB        -5.0440    3.8770   -6.2780 C.3    92  ILE92       0.0252
    116  CG1       -6.4970    3.4330   -6.4740 C.3    92  ILE92       0.0019
    117  CG2       -4.7950    4.1640   -4.7920 C.3    92  ILE92       0.0019
    118  CD1       -6.6980    2.0470   -5.8600 C.3    92  ILE92       0.0001
@<TRIPOS>BOND
     1   103   104    1
     2    29    28    2
     3    30    27    1
     4    30    31    1
     5    27    28    1
     6    27    26    1
     7   104   105    1
     8   104   107    1
     9    32    31    1
    10    32    33    1
    11   105   106    2
    12    34    33    1
    13    20    19    2
    14   109   108    2
    15   108   107    1
    16   108   110   am
    17    26    19   am
    18    19    18    1
    19   111   112    1
    20    17    18    1
    21    18    21    1
    22   114   113    2
    23   112   113    1
    24   112   115    1
    25    21    22    1
    26    10     9    1
    27    10    11    2
    28   116   115    1
    29   116   118    1
    30   115   117    1
    31     9    12    1
    32     9     8    1
    33    12    13    1
    34    13    14    1
    35    22    23    1
    36    23    24    1
    37    41    40    1
    38    35    36    1
    39    14    15    1
    40    42    40    1
    41    25    24    1
    42    15    16    1
    43    40    39    1
    44    39    36    1
    45    36    37    1
    46    38    37    2
    47   102   101   ar
    48   102   100   ar
    49    37    43   am
    50   101    99   ar
    51     7     5    1
    52    43    44    1
    53   100    98   ar
    54    99    98   ar
    55     3     2    1
    56     3     4    2
    57    45    44    1
    58    45    46    2
    59    44    47    1
    60    98    97    1
    61     2     5    1
    62     2     1    1
    63     5     6    1
    64    72    71    1
    65    47    48    1
    66    97    94    1
    67    50    51    1
    68    50    49    1
    69    48    49    1
    70    94    95    1
    71    94    93    1
    72    60    59    1
    73    71    69   ar
    74    71    70   ar
    75    95    96    2
    76    69    67   ar
    77    70    68   ar
    78    91    90    2
    79    93    90   am
    80    52    53    1
    81    59    58    1
    82    90    89    1
    83    67    66   ar
    84    56    53    1
    85    56    57    1
    86    68    66   ar
    87    77    78    1
    88    77    74    1
    89    87    86    1
    90    55    54    2
    91    53    54    1
    92    66    65    1
    93    58    57    1
    94    92    89    1
    95    86    85    1
    96    89    88    1
    97    73    74    1
    98    74    75    1
    99    65    62    1
   100    85    84    1
   101    64    63    2
   102    75    76    2
   103    61    62    1
   104    84    83    1
   105    62    63    1
   106    83    80    1
   107    79    80    1
   108    80    81    1
   109    81    82    2
