@<TRIPOS>MOLECULE
tmp/2ll4A00.pdb
 101 94 0 0 0
SMALL
GASTEIGER

@<TRIPOS>ATOM
      1  N          4.7610    4.3790    0.1040 N.3     9  SER9       -0.1202
      2  CA         3.9950    5.6010    0.2390 C.3     9  SER9        0.2020
      3  C          3.9000    6.0320    1.6950 C.2     9  SER9        0.2619
      4  O          3.2000    5.4140    2.4960 O.2     9  SER9       -0.2717
      5  CB         2.5980    5.4120   -0.3460 C.3     9  SER9        0.2103
      6  OG         2.6600    5.1100   -1.7290 O.3     9  SER9       -0.2182
      7  N          4.6130    7.0950    2.0370 N.am   10  LYS10      -0.1965
      8  CA         4.5930    7.6280    3.3920 C.3    10  LYS10       0.1728
      9  C          3.3550    8.5020    3.5750 C.2    10  LYS10       0.2616
     10  O          3.4490    9.6980    3.8380 O.2    10  LYS10      -0.2715
     11  CB         5.8680    8.4310    3.6730 C.3    10  LYS10       0.0311
     12  CG         6.1140    8.7040    5.1500 C.3    10  LYS10       0.0038
     13  CD         7.4920    9.3060    5.3840 C.3    10  LYS10       0.0206
     14  CE         7.5560   10.7640    4.9510 C.3    10  LYS10       0.1093
     15  NZ         6.8190   11.6530    5.8810 N.3    10  LYS10      -0.1314
     16  N          2.1940    7.8940    3.3950 N.am   11  ALA11      -0.1977
     17  CA         0.9310    8.5940    3.5330 C.3    11  ALA11       0.1597
     18  C          0.1160    7.9940    4.6670 C.2    11  ALA11       0.2287
     19  O          0.4130    6.8940    5.1420 O.2    11  ALA11      -0.2864
     20  CB         0.1500    8.5480    2.2260 C.3    11  ALA11       0.0319
     21  N         -2.6290    6.0420    6.5900 N.3    13  THR13      -0.1218
     22  CA        -3.4220    4.8520    6.3350 C.3    13  THR13       0.1862
     23  C         -4.8460    5.0660    6.8490 C.2    13  THR13       0.2287
     24  O         -5.0500    5.7470    7.8580 O.2    13  THR13      -0.2866
     25  CB        -2.7910    3.6130    7.0100 C.3    13  THR13       0.1770
     26  OG1       -1.3930    3.5480    6.6890 O.3    13  THR13      -0.2211
     27  CG2       -3.4760    2.3290    6.5610 C.3    13  THR13       0.0375
     28  N         -0.0950    0.1870   -0.4320 N.3    40  THR40      -0.1218
     29  CA         1.3080   -0.1650   -0.4230 C.3    40  THR40       0.1862
     30  C          1.4820   -1.5250    0.2350 C.2    40  THR40       0.2287
     31  O          1.3420   -1.6530    1.4480 O.2    40  THR40      -0.2866
     32  CB         2.1580    0.8870    0.3210 C.3    40  THR40       0.1770
     33  OG1        1.9290    2.1880   -0.2360 O.3    40  THR40      -0.2211
     34  CG2        3.6410    0.5570    0.2330 C.3    40  THR40       0.0375
     35  N          3.7360   -4.0850    1.5440 N.3    42  ASN42      -0.1240
     36  CA         5.1010   -4.3160    1.9670 C.3    42  ASN42       0.1653
     37  C          5.3910   -5.8050    1.9010 C.2    42  ASN42       0.2266
     38  O          5.0910   -6.5390    2.8360 O.2    42  ASN42      -0.2867
     39  CB         5.3120   -3.7910    3.3890 C.3    42  ASN42       0.1155
     40  CG         6.7520   -3.9090    3.8480 C.2    42  ASN42       0.2627
     41  OD1        7.1460   -4.9120    4.4450 O.2    42  ASN42      -0.2716
     42  ND2        7.5450   -2.8910    3.5730 N.am   42  ASN42      -0.0877
     43  N          7.3330   -7.6490    4.8410 N.3    45  SER45      -0.1217
     44  CA         6.6690   -8.1400    6.0450 C.3    45  SER45       0.1889
     45  C          5.2960   -8.7490    5.7290 C.2    45  SER45       0.2288
     46  O          4.7390   -9.5090    6.5220 O.2    45  SER45      -0.2866
     47  CB         6.5140   -6.9930    7.0460 C.3    45  SER45       0.2089
     48  OG         7.6600   -6.1530    7.0420 O.3    45  SER45      -0.2183
     49  N         -1.2480   -1.8250    3.1510 N.3    49  TYR49      -0.1241
     50  CA        -1.4050   -0.4370    3.5590 C.3    49  TYR49       0.1605
     51  C         -2.4270    0.3160    2.7140 C.2    49  TYR49       0.2264
     52  O         -2.0660    0.9370    1.7130 O.2    49  TYR49      -0.2867
     53  CB        -0.0700    0.3020    3.4800 C.3    49  TYR49       0.0534
     54  CG         0.9260   -0.0520    4.5630 C.ar   49  TYR49      -0.0201
     55  CD1        1.7900   -1.1310    4.4220 C.ar   49  TYR49      -0.0009
     56  CD2        1.0090    0.7070    5.7220 C.ar   49  TYR49      -0.0009
     57  CE1        2.7080   -1.4410    5.4030 C.ar   49  TYR49       0.0417
     58  CE2        1.9300    0.4040    6.7060 C.ar   49  TYR49       0.0417
     59  CZ         2.7730   -0.6720    6.5420 C.ar   49  TYR49       0.1957
     60  OH         3.6950   -0.9740    7.5170 O.3    49  TYR49      -0.2866
     61  N         -4.0870    3.2940    1.9020 N.3    51  LYS51      -0.1245
     62  CA        -3.9090    4.7070    2.2060 C.3    51  LYS51       0.1561
     63  C         -4.7910    5.6160    1.3640 C.2    51  LYS51       0.2260
     64  O         -5.3430    5.2130    0.3370 O.2    51  LYS51      -0.2867
     65  CB        -2.4430    5.0920    2.0220 C.3    51  LYS51       0.0271
     66  CG        -1.5000    4.3260    2.9320 C.3    51  LYS51       0.0035
     67  CD        -0.0500    4.6850    2.6560 C.3    51  LYS51       0.0206
     68  CE         0.9010    3.9080    3.5490 C.3    51  LYS51       0.1093
     69  NZ         0.6930    4.2140    4.9880 N.3    51  LYS51      -0.1314
     70  N          8.8180    6.9980   -1.2010 N.3    58  TYR58      -0.1241
     71  CA        10.1830    6.9650   -0.6920 C.3    58  TYR58       0.1605
     72  C         10.8640    5.6730   -1.1400 C.2    58  TYR58       0.2264
     73  O         10.1890    4.6860   -1.4420 O.2    58  TYR58      -0.2867
     74  CB        10.2200    7.1110    0.8380 C.3    58  TYR58       0.0534
     75  CG         9.5580    5.9890    1.6130 C.ar   58  TYR58      -0.0201
     76  CD1       10.2790    4.8650    1.9930 C.ar   58  TYR58      -0.0009
     77  CD2        8.2210    6.0630    1.9820 C.ar   58  TYR58      -0.0009
     78  CE1        9.6910    3.8510    2.7200 C.ar   58  TYR58       0.0417
     79  CE2        7.6230    5.0500    2.7080 C.ar   58  TYR58       0.0417
     80  CZ         8.3630    3.9460    3.0730 C.ar   58  TYR58       0.1957
     81  OH         7.7820    2.9370    3.8010 O.3    58  TYR58      -0.2866
     82  N         12.5700    2.2780   -0.8060 N.3    60  TYR60      -0.1241
     83  CA        12.6220    1.1670    0.1400 C.3    60  TYR60       0.1605
     84  C         12.4150   -0.1530   -0.5950 C.2    60  TYR60       0.2264
     85  O         11.3790   -0.3660   -1.2260 O.2    60  TYR60      -0.2867
     86  CB        11.5630    1.3270    1.2400 C.3    60  TYR60       0.0534
     87  CG        11.5600    0.2000    2.2530 C.ar   60  TYR60      -0.0201
     88  CD1       12.3800    0.2410    3.3730 C.ar   60  TYR60      -0.0009
     89  CD2       10.7330   -0.9030    2.0870 C.ar   60  TYR60      -0.0009
     90  CE1       12.3760   -0.7860    4.2960 C.ar   60  TYR60       0.0417
     91  CE2       10.7240   -1.9330    3.0030 C.ar   60  TYR60       0.0417
     92  CZ        11.5450   -1.8700    4.1060 C.ar   60  TYR60       0.1957
     93  OH        11.5400   -2.8980    5.0190 O.3    60  TYR60      -0.2866
     94  N          8.6800   -2.2100   -0.4320 N.3    63  ASP63      -0.1239
     95  CA         7.4100   -1.4970   -0.4780 C.3    63  ASP63       0.1674
     96  C          6.9220   -1.3580   -1.9140 C.2    63  ASP63       0.2266
     97  O          7.5520   -0.6850   -2.7330 O.2    63  ASP63      -0.2867
     98  CB         7.5500   -0.1140    0.1580 C.3    63  ASP63       0.1410
     99  CG         7.2610   -0.1190    1.6470 C.2    63  ASP63       0.3668
    100  OD1        6.4690   -0.9660    2.0980 O.co2  63  ASP63      -0.2456
    101  OD2        7.8300    0.7250    2.3740 O.co2  63  ASP63      -0.2456
@<TRIPOS>BOND
     1    97    96    2
     2    96    95    1
     3     6     5    1
     4    73    72    2
     5    85    84    2
     6    70    71    1
     7    72    71    1
     8    82    83    1
     9    71    74    1
    10    84    83    1
    11    95    94    1
    12    95    98    1
    13    28    29    1
    14    29    30    1
    15    29    32    1
    16     5     2    1
    17    33    32    1
    18     1     2    1
    19    83    86    1
    20    98    99    1
    21    34    32    1
    22    30    31    2
    23     2     3    1
    24    64    63    2
    25    74    75    1
    26    86    87    1
    27    63    62    1
    28    35    36    1
    29    75    77   ar
    30    75    76   ar
    31    99   100   ar
    32    99   101   ar
    33     3     7   am
    34     3     4    2
    35    52    51    2
    36    37    36    1
    37    37    38    2
    38    61    62    1
    39    36    39    1
    40    77    79   ar
    41    76    78   ar
    42    65    62    1
    43    65    66    1
    44     7     8    1
    45    89    87   ar
    46    89    91   ar
    47    20    17    1
    48    87    88   ar
    49    67    66    1
    50    67    68    1
    51    79    80   ar
    52    51    50    1
    53    78    80   ar
    54    91    92   ar
    55    80    81    1
    56    49    50    1
    57    88    90   ar
    58    39    40    1
    59     8     9    1
    60     8    11    1
    61    16    17    1
    62    16     9   am
    63    53    50    1
    64    53    54    1
    65    17    18    1
    66    68    69    1
    67    42    40   am
    68     9    10    2
    69    11    12    1
    70    40    41    2
    71    92    90   ar
    72    92    93    1
    73    55    54   ar
    74    55    57   ar
    75    54    56   ar
    76    18    19    2
    77    43    44    1
    78    14    13    1
    79    14    15    1
    80    12    13    1
    81    57    59   ar
    82    56    58   ar
    83    45    44    1
    84    45    46    2
    85    44    47    1
    86    22    21    1
    87    22    23    1
    88    22    25    1
    89    59    58   ar
    90    59    60    1
    91    27    25    1
    92    26    25    1
    93    23    24    2
    94    48    47    1
