@<TRIPOS>MOLECULE
tmp/2lmlA00.pdb
 113 109 0 0 0
SMALL
GASTEIGER

@<TRIPOS>ATOM
      1  N         -3.5550   11.7320   -8.7670 N.3    27  SER27      -0.1202
      2  CA        -2.1660   11.2690   -8.8990 C.3    27  SER27       0.2020
      3  C         -1.2130   12.4760   -8.8740 C.2    27  SER27       0.2619
      4  O         -1.6440   13.6190   -8.6510 O.2    27  SER27      -0.2717
      5  CB        -2.0170   10.4710  -10.2190 C.3    27  SER27       0.2103
      6  OG        -2.3930   11.2510  -11.3460 O.3    27  SER27      -0.2182
      7  N          0.0880   12.2030   -9.0640 N.am   28  ALA28      -0.1965
      8  CA         1.1110   13.2390   -9.2350 C.3    28  ALA28       0.1728
      9  C          0.8190   14.1260  -10.4550 C.2    28  ALA28       0.2616
     10  O          1.1050   15.3220  -10.4320 O.2    28  ALA28      -0.2715
     11  CB         2.4980   12.5980   -9.3500 C.3    28  ALA28       0.0334
     12  N          0.2130   13.5340  -11.5070 N.am   29  ASN29      -0.1972
     13  CA        -0.1370   14.2550  -12.7490 C.3    29  ASN29       0.1688
     14  C         -1.2350   15.3150  -12.4940 C.2    29  ASN29       0.2292
     15  O         -1.3280   16.3090  -13.2210 O.2    29  ASN29      -0.2864
     16  CB        -0.5820   13.2450  -13.8400 C.3    29  ASN29       0.1181
     17  CG        -0.9100   13.8970  -15.1890 C.2    29  ASN29       0.2629
     18  OD1       -2.0680   14.2000  -15.4850 O.2    29  ASN29      -0.2716
     19  ND2        0.1080   14.1350  -16.0060 N.am   29  ASN29      -0.0877
     20  N          3.9040   17.8520   -6.9480 N.3    34  TRP34      -0.1227
     21  CA         4.2750   16.4640   -6.6610 C.3    34  TRP34       0.1737
     22  C          5.3170   15.9970   -7.6930 C.2    34  TRP34       0.2595
     23  O          5.0160   15.9140   -8.8830 O.2    34  TRP34      -0.2718
     24  CB         2.9880   15.5750   -6.7260 C.3    34  TRP34       0.0564
     25  CG         3.0830   14.2140   -6.0630 C.ar   34  TRP34       0.0003
     26  CD1        4.1830   13.4150   -5.9160 C.ar   34  TRP34       0.0946
     27  CD2        1.9940   13.4910   -5.4710 C.ar   34  TRP34       0.0152
     28  NE1        3.8450   12.2710   -5.2510 N.ar   34  TRP34      -0.2442
     29  CE2        2.5150   12.2920   -4.9640 C.ar   34  TRP34       0.0810
     30  CE3        0.6330   13.7580   -5.3050 C.ar   34  TRP34       0.0012
     31  CZ2        1.7260   11.3540   -4.3130 C.ar   34  TRP34       0.0191
     32  CZ3       -0.1540   12.8270   -4.6610 C.ar   34  TRP34       0.0001
     33  CH2        0.3970   11.6400   -4.1650 C.ar   34  TRP34       0.0015
     34  N          6.5270   15.6990   -7.2270 N.am   35  ASP35      -0.1960
     35  CA         7.6210   15.1610   -8.0580 C.3    35  ASP35       0.1840
     36  C          8.2890   14.0120   -7.2810 C.2    35  ASP35       0.2622
     37  O          7.7590   13.6050   -6.2570 O.2    35  ASP35      -0.2715
     38  CB         8.6410   16.2790   -8.3940 C.3    35  ASP35       0.1450
     39  CG         9.4260   16.7840   -7.1640 C.2    35  ASP35       0.3671
     40  OD1        8.8590   17.5320   -6.3520 O.co2  35  ASP35      -0.2456
     41  OD2       10.6100   16.4140   -7.0010 O.co2  35  ASP35      -0.2456
     42  N          9.4360   13.4980   -7.7730 N.am   36  SER36      -0.1950
     43  CA        10.2300   12.4210   -7.1220 C.3    36  SER36       0.1924
     44  C         10.5400   12.7260   -5.6430 C.2    36  SER36       0.2314
     45  O         10.2690   11.9060   -4.7650 O.2    36  SER36      -0.2863
     46  CB        11.5630   12.1940   -7.9140 C.3    36  SER36       0.2116
     47  OG        11.4120   11.5330   -9.1900 O.3    36  SER36      -0.2180
     48  N          7.3710   12.9930   -3.5250 N.3    39  HIS39      -0.1241
     49  CA         6.8180   11.6250   -3.4500 C.3    39  HIS39       0.1621
     50  C          7.5050   10.8350   -2.3310 C.2    39  HIS39       0.2264
     51  O          6.8570   10.1130   -1.5750 O.2    39  HIS39      -0.2867
     52  CB         6.9980   10.9170   -4.8170 C.3    39  HIS39       0.0745
     53  CG         6.2330    9.6280   -5.0060 C.ar   39  HIS39       0.0817
     54  ND1        4.8750    9.5670   -4.8190 N.ar   39  HIS39      -0.2268
     55  CD2        6.6650    8.4290   -5.4550 C.ar   39  HIS39       0.1154
     56  CE1        4.5190    8.3460   -5.1720 C.ar   39  HIS39       0.1986
     57  NE2        5.5680    7.6260   -5.5560 N.ar   39  HIS39      -0.2212
     58  N          5.8550    9.4560    1.2530 N.3    43  ILE43      -0.1245
     59  CA         5.9930    8.0810    1.7730 C.3    43  ILE43       0.1561
     60  C          6.6480    8.0950    3.1740 C.2    43  ILE43       0.2260
     61  O          6.1380    7.4280    4.0700 O.2    43  ILE43      -0.2867
     62  CB         6.7560    7.1220    0.7510 C.3    43  ILE43       0.0252
     63  CG1        5.7760    6.5140   -0.3240 C.3    43  ILE43       0.0019
     64  CG2        7.5260    5.9710    1.4600 C.3    43  ILE43       0.0019
     65  CD1        5.0420    7.5080   -1.2010 C.3    43  ILE43       0.0001
     66  N          5.5980    0.7000   -4.7010 N.3    59  LEU59      -0.1245
     67  CA         5.6430    2.0430   -5.3350 C.3    59  LEU59       0.1561
     68  C          5.4020    1.9250   -6.8620 C.2    59  LEU59       0.2260
     69  O          4.7620    2.7930   -7.4650 O.2    59  LEU59      -0.2867
     70  CB         7.0040    2.7580   -5.0230 C.3    59  LEU59       0.0270
     71  CG         7.1140    3.5850   -3.6900 C.3    59  LEU59       0.0019
     72  CD1        6.3190    4.8910   -3.7860 C.3    59  LEU59       0.0001
     73  CD2        6.6810    2.7730   -2.4520 C.3    59  LEU59       0.0001
     74  N          1.8580    2.0690   -7.0110 N.3    62  LEU62      -0.1231
     75  CA         1.2530    3.3130   -6.4710 C.3    62  LEU62       0.1693
     76  C          1.1690    4.3850   -7.5660 C.2    62  LEU62       0.2592
     77  O          2.0240    5.2620   -7.6240 O.2    62  LEU62      -0.2718
     78  CB         2.0650    3.8470   -5.2420 C.3    62  LEU62       0.0284
     79  CG         2.0680    2.9460   -3.9660 C.3    62  LEU62       0.0019
     80  CD1        2.9080    3.5660   -2.8290 C.3    62  LEU62       0.0001
     81  CD2        0.6340    2.6410   -3.5040 C.3    62  LEU62       0.0001
     82  N          0.1640    4.2830   -8.4630 N.am   63  LYS63      -0.1966
     83  CA        -0.0300    5.2630   -9.5610 C.3    63  LYS63       0.1728
     84  C         -0.8830    6.4410   -9.0530 C.2    63  LYS63       0.2616
     85  O         -0.6710    7.5840   -9.4540 O.2    63  LYS63      -0.2715
     86  CB        -0.6600    4.5720  -10.8230 C.3    63  LYS63       0.0311
     87  CG        -0.4690    5.3210  -12.1860 C.3    63  LYS63       0.0038
     88  CD        -1.3260    6.6110  -12.3480 C.3    63  LYS63       0.0206
     89  CE        -0.9770    7.4320  -13.6030 C.3    63  LYS63       0.1093
     90  NZ        -1.2920    6.7100  -14.8500 N.3    63  LYS63      -0.1314
     91  N         -1.8170    6.1550   -8.1420 N.am   64  ASN64      -0.1958
     92  CA        -2.7630    7.1550   -7.6060 C.3    64  ASN64       0.1819
     93  C         -2.8370    7.0390   -6.0800 C.2    64  ASN64       0.2621
     94  O         -2.3170    6.0910   -5.4860 O.2    64  ASN64      -0.2715
     95  CB        -4.1940    6.9700   -8.2080 C.3    64  ASN64       0.1195
     96  CG        -4.2390    7.0790   -9.7330 C.2    64  ASN64       0.2630
     97  OD1       -4.3940    8.1600  -10.2890 O.2    64  ASN64      -0.2716
     98  ND2       -4.1080    5.9560  -10.4170 N.am   64  ASN64      -0.0877
     99  N         -3.5110    8.0250   -5.4680 N.am   65  VAL65      -0.1977
    100  CA        -3.8020    8.0670   -4.0240 C.3    65  VAL65       0.1596
    101  C         -4.8350    6.9750   -3.6400 C.2    65  VAL65       0.2287
    102  O         -4.9700    6.6190   -2.4680 O.2    65  VAL65      -0.2864
    103  CB        -4.3140    9.4980   -3.5890 C.3    65  VAL65       0.0276
    104  CG1       -4.5180    9.5910   -2.0570 C.3    65  VAL65       0.0022
    105  CG2       -3.3450   10.6080   -4.0780 C.3    65  VAL65       0.0022
    106  N         -2.6480    4.2460   -2.7750 N.3    68  LEU68      -0.1245
    107  CA        -2.2360    4.5430   -1.3840 C.3    68  LEU68       0.1561
    108  C         -3.3460    4.1630   -0.4000 C.2    68  LEU68       0.2260
    109  O         -3.0570    3.6420    0.6530 O.2    68  LEU68      -0.2867
    110  CB        -1.8360    6.0480   -1.1700 C.3    68  LEU68       0.0270
    111  CG        -0.3690    6.4420   -1.5180 C.3    68  LEU68       0.0019
    112  CD1        0.6500    5.6080   -0.7050 C.3    68  LEU68       0.0001
    113  CD2       -0.1040    6.3510   -3.0290 C.3    68  LEU68       0.0001
@<TRIPOS>BOND
     1    19    17   am
     2    18    17    2
     3    17    16    1
     4    90    89    1
     5    16    13    1
     6    89    88    1
     7    15    14    2
     8    13    14    1
     9    13    12    1
    10    88    87    1
    11    87    86    1
    12    12     9   am
    13     6     5    1
    14    86    83    1
    15     9    10    2
    16     9     8    1
    17    98    96   am
    18    97    96    2
    19     5     2    1
    20    96    95    1
    21    83    84    1
    22    83    82    1
    23    85    84    2
    24    11     8    1
    25     8     7    1
    26    47    46    1
    27     7     3   am
    28    84    91   am
    29     2     3    1
    30     2     1    1
    31    23    22    2
    32     3     4    2
    33    82    76   am
    34    38    35    1
    35    38    39    1
    36    95    92    1
    37    91    92    1
    38    35    36    1
    39    35    34    1
    40    46    43    1
    41    42    36   am
    42    42    43    1
    43    22    34   am
    44    22    21    1
    45    77    76    2
    46    92    93    1
    47    76    75    1
    48    69    68    2
    49    36    37    2
    50    39    41   ar
    51    39    40   ar
    52    43    44    1
    53    74    75    1
    54    20    21    1
    55    68    67    1
    56    24    21    1
    57    24    25    1
    58    75    78    1
    59    93    94    2
    60    93    99   am
    61    25    26   ar
    62    25    27   ar
    63    26    28   ar
    64    44    45    2
    65    57    55   ar
    66    57    56   ar
    67    27    30   ar
    68    27    29   ar
    69    99   100    1
    70    55    53   ar
    71    67    70    1
    72    67    66    1
    73    30    32   ar
    74    28    29   ar
    75    78    79    1
    76    56    54   ar
    77    70    71    1
    78    53    54   ar
    79    53    52    1
    80    29    31   ar
    81    52    49    1
    82    32    33   ar
    83    31    33   ar
    84   105   103    1
    85   100   101    1
    86   100   103    1
    87    79    81    1
    88    79    80    1
    89    72    71    1
    90    71    73    1
    91   101   102    2
    92   103   104    1
    93    48    49    1
    94    49    50    1
    95   113   111    1
    96   106   107    1
    97    50    51    2
    98   111   110    1
    99   111   112    1
   100   107   110    1
   101   107   108    1
   102    65    63    1
   103   108   109    2
   104    63    62    1
   105    62    64    1
   106    62    59    1
   107    58    59    1
   108    59    60    1
   109    60    61    2
