@<TRIPOS>MOLECULE
tmp/2lnwA00.pdb
 158 152 0 0 0
SMALL
GASTEIGER

@<TRIPOS>ATOM
      1  N          8.3420  -10.5630    3.7040 N.3    22  ARG22      -0.1245
      2  CA         8.4280  -10.2850    2.2710 C.3    22  ARG22       0.1563
      3  C          8.1300  -11.5430    1.4570 C.2    22  ARG22       0.2260
      4  O          7.2900  -11.5210    0.5550 O.2    22  ARG22      -0.2867
      5  CB         9.8160   -9.7460    1.9100 C.3    22  ARG22       0.0307
      6  CG         9.8830   -9.1140    0.5280 C.3    22  ARG22       0.0489
      7  CD        10.9690   -9.7510   -0.3290 C.3    22  ARG22       0.2205
      8  NE        10.5400   -9.9390   -1.7170 N.pl3  22  ARG22      -0.0865
      9  CZ        11.3510  -10.3280   -2.7050 C.cat  22  ARG22       0.5346
     10  NH1       12.6380  -10.5700   -2.4680 N.pl3  22  ARG22       0.1354
     11  NH2       10.8740  -10.4780   -3.9350 N.pl3  22  ARG22       0.1354
     12  N          1.3710   -3.6920    4.6920 N.3    40  ARG40      -0.1245
     13  CA         1.9940   -4.3070    5.8670 C.3    40  ARG40       0.1563
     14  C          2.8960   -3.3090    6.5930 C.2    40  ARG40       0.2260
     15  O          3.2600   -2.2680    6.0410 O.2    40  ARG40      -0.2867
     16  CB         2.8160   -5.5350    5.4590 C.3    40  ARG40       0.0307
     17  CG         2.0780   -6.5000    4.5390 C.3    40  ARG40       0.0489
     18  CD         2.9640   -6.9860    3.3990 C.3    40  ARG40       0.2205
     19  NE         4.2690   -7.4560    3.8680 N.pl3  40  ARG40      -0.0865
     20  CZ         5.4060   -6.7560    3.7640 C.cat  40  ARG40       0.5346
     21  NH1        5.4090   -5.5420    3.2200 N.pl3  40  ARG40       0.1354
     22  NH2        6.5450   -7.2710    4.2130 N.pl3  40  ARG40       0.1354
     23  N          6.5400   -2.4190    8.6950 N.3    42  ARG42      -0.1245
     24  CA         7.9490   -2.8060    8.7130 C.3    42  ARG42       0.1563
     25  C          8.7660   -1.8780    9.6150 C.2    42  ARG42       0.2260
     26  O          8.6870   -0.6550    9.4900 O.2    42  ARG42      -0.2867
     27  CB         8.5230   -2.7940    7.2910 C.3    42  ARG42       0.0307
     28  CG         8.3140   -1.4770    6.5550 C.3    42  ARG42       0.0489
     29  CD         8.8520   -1.5390    5.1340 C.3    42  ARG42       0.2205
     30  NE        10.3130   -1.6070    5.0990 N.pl3  42  ARG42      -0.0865
     31  CZ        11.0550   -1.2280    4.0540 C.cat  42  ARG42       0.5346
     32  NH1       10.4810   -0.7440    2.9570 N.pl3  42  ARG42       0.1354
     33  NH2       12.3780   -1.3370    4.1060 N.pl3  42  ARG42       0.1354
     34  N         11.6610    4.0480    5.8980 N.3    47  GLU47      -0.1245
     35  CA        10.3320    3.5280    5.5870 C.3    47  GLU47       0.1567
     36  C          9.6500    2.9830    6.8380 C.2    47  GLU47       0.2260
     37  O         10.2770    2.3080    7.6550 O.2    47  GLU47      -0.2867
     38  CB        10.4320    2.4230    4.5330 C.3    47  GLU47       0.0388
     39  CG        10.5800    2.9450    3.1120 C.3    47  GLU47       0.1160
     40  CD        11.8730    3.7090    2.9000 C.2    47  GLU47       0.3649
     41  OE1       12.9550    3.1250    3.1270 O.co2  47  GLU47      -0.2457
     42  OE2       11.8060    4.8930    2.5110 O.co2  47  GLU47      -0.2457
     43  N          4.5530   -0.4680    4.3130 N.3    50  ALA50      -0.1231
     44  CA         4.8750   -1.1860    3.0820 C.3    50  ALA50       0.1694
     45  C          3.6070   -1.6100    2.3390 C.2    50  ALA50       0.2591
     46  O          2.7200   -2.2330    2.9210 O.2    50  ALA50      -0.2718
     47  CB         5.7370   -2.3990    3.3960 C.3    50  ALA50       0.0304
     48  N          3.5250   -1.2630    1.0540 N.am   51  ILE51      -0.1980
     49  CA         2.3580   -1.6020    0.2390 C.3    51  ILE51       0.1595
     50  C          2.7010   -2.6340   -0.8400 C.2    51  ILE51       0.2287
     51  O          3.8090   -2.6410   -1.3750 O.2    51  ILE51      -0.2864
     52  CB         1.7580   -0.3490   -0.4340 C.3    51  ILE51       0.0276
     53  CG1        1.5430    0.7670    0.5970 C.3    51  ILE51       0.0022
     54  CG2        0.4470   -0.6940   -1.1280 C.3    51  ILE51       0.0022
     55  CD1        1.6320    2.1600    0.0110 C.3    51  ILE51       0.0001
     56  N          4.0620   -6.6080   -7.0650 N.3    60  LYS60      -0.1231
     57  CA         4.8350   -5.3720   -6.9500 C.3    60  LYS60       0.1693
     58  C          4.8690   -4.8730   -5.5060 C.2    60  LYS60       0.2592
     59  O          3.9740   -5.1740   -4.7130 O.2    60  LYS60      -0.2718
     60  CB         4.2560   -4.2890   -7.8660 C.3    60  LYS60       0.0285
     61  CG         4.3650   -4.6170   -9.3480 C.3    60  LYS60       0.0035
     62  CD         5.8160   -4.7130   -9.7960 C.3    60  LYS60       0.0206
     63  CE         6.2770   -6.1590   -9.8980 C.3    60  LYS60       0.1093
     64  NZ         7.7620   -6.2750   -9.9110 N.3    60  LYS60      -0.1314
     65  N          5.9140   -4.1120   -5.1740 N.am   61  HIS61      -0.1962
     66  CA         6.0810   -3.5690   -3.8260 C.3    61  HIS61       0.1787
     67  C          6.2970   -2.0560   -3.8620 C.2    61  HIS61       0.2620
     68  O          7.0280   -1.5460   -4.7130 O.2    61  HIS61      -0.2715
     69  CB         7.2650   -4.2440   -3.1290 C.3    61  HIS61       0.0785
     70  CG         7.0200   -5.6790   -2.7790 C.ar   61  HIS61       0.0821
     71  ND1        6.7730   -6.1090   -1.4920 N.ar   61  HIS61      -0.2267
     72  CD2        6.9850   -6.7870   -3.5570 C.ar   61  HIS61       0.1154
     73  CE1        6.5960   -7.4180   -1.4940 C.ar   61  HIS61       0.1986
     74  NE2        6.7190   -7.8520   -2.7340 N.ar   61  HIS61      -0.2212
     75  N          5.6580   -1.3440   -2.9320 N.am   62  ILE62      -0.1963
     76  CA         5.7790    0.1130   -2.8530 C.3    62  ILE62       0.1727
     77  C          6.1580    0.5630   -1.4410 C.2    62  ILE62       0.2616
     78  O          5.4300    0.3030   -0.4790 O.2    62  ILE62      -0.2715
     79  CB         4.4660    0.8130   -3.2690 C.3    62  ILE62       0.0290
     80  CG1        3.9740    0.2750   -4.6160 C.3    62  ILE62       0.0022
     81  CG2        4.6650    2.3230   -3.3360 C.3    62  ILE62       0.0023
     82  CD1        2.4970    0.5000   -4.8570 C.3    62  ILE62       0.0001
     83  N          7.3010    1.2420   -1.3270 N.am   63  LYS63      -0.1977
     84  CA         7.7850    1.7350   -0.0370 C.3    63  LYS63       0.1596
     85  C          7.0100    2.9770    0.4110 C.2    63  LYS63       0.2287
     86  O          6.6750    3.8380   -0.4050 O.2    63  LYS63      -0.2864
     87  CB         9.2860    2.0490   -0.1100 C.3    63  LYS63       0.0298
     88  CG         9.6680    3.0120   -1.2280 C.3    63  LYS63       0.0038
     89  CD        10.2270    2.2750   -2.4350 C.3    63  LYS63       0.0206
     90  CE        11.7470    2.3570   -2.4900 C.3    63  LYS63       0.1093
     91  NZ        12.2470    2.5520   -3.8810 N.3    63  LYS63      -0.1314
     92  N          4.6220    7.9990   -0.5980 N.3    73  ILE73      -0.1231
     93  CA         5.4810    6.9560   -1.1640 C.3    73  ILE73       0.1692
     94  C          6.4560    7.5270   -2.1990 C.2    73  ILE73       0.2593
     95  O          7.5230    6.9590   -2.4320 O.2    73  ILE73      -0.2718
     96  CB         4.6580    5.8230   -1.8230 C.3    73  ILE73       0.0266
     97  CG1        3.7600    6.3730   -2.9390 C.3    73  ILE73       0.0019
     98  CG2        3.8270    5.0880   -0.7780 C.3    73  ILE73       0.0020
     99  CD1        4.0230    5.7440   -4.2900 C.3    73  ILE73       0.0001
    100  N          6.0810    8.6490   -2.8200 N.am   74  THR74      -0.1939
    101  CA         6.9190    9.2910   -3.8310 C.3    74  THR74       0.2028
    102  C          7.5790   10.5560   -3.2730 C.2    74  THR74       0.2642
    103  O          7.4540   10.8590   -2.0840 O.2    74  THR74      -0.2714
    104  CB         6.0800    9.6410   -5.0670 C.3    74  THR74       0.1808
    105  OG1        5.1100   10.6280   -4.7550 O.3    74  THR74      -0.2208
    106  CG2        5.3510    8.4480   -5.6550 C.3    74  THR74       0.0379
    107  N          8.2730   11.2950   -4.1400 N.am   75  GLU75      -0.1976
    108  CA         8.9400   12.5280   -3.7400 C.3    75  GLU75       0.1602
    109  C          8.4140   13.7110   -4.5520 C.2    75  GLU75       0.2287
    110  O          9.1840   14.4630   -5.1540 O.2    75  GLU75      -0.2864
    111  CB        10.4570   12.3950   -3.9020 C.3    75  GLU75       0.0415
    112  CG        11.1120   11.5580   -2.8120 C.3    75  GLU75       0.1163
    113  CD        12.5990   11.8260   -2.6680 C.2    75  GLU75       0.3649
    114  OE1       13.0050   13.0040   -2.7610 O.co2  75  GLU75      -0.2457
    115  OE2       13.3590   10.8570   -2.4590 O.co2  75  GLU75      -0.2457
    116  N          2.1660    7.8630  -10.6100 N.3    97  SER97      -0.1202
    117  CA         3.4570    7.8170   -9.9290 C.3    97  SER97       0.2020
    118  C          4.3780    6.7810  -10.5690 C.2    97  SER97       0.2619
    119  O          5.5560    7.0490  -10.8090 O.2    97  SER97      -0.2717
    120  CB         3.2680    7.4940   -8.4450 C.3    97  SER97       0.2103
    121  OG         2.4880    8.4840   -7.8000 O.3    97  SER97      -0.2182
    122  N          3.8340    5.5970  -10.8430 N.am   98  PHE98      -0.1961
    123  CA         4.6050    4.5190  -11.4540 C.3    98  PHE98       0.1771
    124  C          4.1050    4.2330  -12.8660 C.2    98  PHE98       0.2619
    125  O          3.1390    3.4920  -13.0490 O.2    98  PHE98      -0.2715
    126  CB         4.5130    3.2470  -10.6050 C.3    98  PHE98       0.0574
    127  CG         4.7930    3.4640   -9.1420 C.ar   98  PHE98      -0.0200
    128  CD1        6.0470    3.8690   -8.7140 C.ar   98  PHE98      -0.0042
    129  CD2        3.7990    3.2620   -8.1990 C.ar   98  PHE98      -0.0042
    130  CE1        6.3030    4.0660   -7.3720 C.ar   98  PHE98      -0.0003
    131  CE2        4.0510    3.4580   -6.8550 C.ar   98  PHE98      -0.0003
    132  CZ         5.3050    3.8600   -6.4410 C.ar   98  PHE98      -0.0000
    133  N          4.7660    4.8210  -13.8630 N.am   99  LYS99      -0.1963
    134  CA         4.3800    4.6230  -15.2600 C.3    99  LYS99       0.1728
    135  C          4.3680    3.1370  -15.6320 C.2    99  LYS99       0.2616
    136  O          3.5700    2.7100  -16.4670 O.2    99  LYS99      -0.2715
    137  CB         5.3190    5.3900  -16.1970 C.3    99  LYS99       0.0311
    138  CG         6.7980    5.1140  -15.9560 C.3    99  LYS99       0.0038
    139  CD         7.5270    4.8200  -17.2580 C.3    99  LYS99       0.0206
    140  CE         8.9820    5.2600  -17.1970 C.3    99  LYS99       0.1093
    141  NZ         9.8930    4.1290  -16.8640 N.3    99  LYS99      -0.1314
    142  N          5.2510    2.3570  -15.0040 N.am  100  GLN100     -0.1963
    143  CA         5.3340    0.9200  -15.2650 C.3   100  GLN100      0.1733
    144  C          4.0280    0.2130  -14.8930 C.2   100  GLN100      0.2616
    145  O          3.6590   -0.7870  -15.5100 O.2   100  GLN100     -0.2715
    146  CB         6.4950    0.3000  -14.4810 C.3   100  GLN100      0.0408
    147  CG         7.7710    0.1550  -15.2940 C.3   100  GLN100      0.0908
    148  CD         8.3850   -1.2270  -15.1760 C.2   100  GLN100      0.2608
    149  OE1        8.3650   -2.0100  -16.1250 O.2   100  GLN100     -0.2717
    150  NE2        8.9360   -1.5350  -14.0070 N.am  100  GLN100     -0.0878
    151  N          3.3370    0.7340  -13.8770 N.am  101  LEU101     -0.1977
    152  CA         2.0790    0.1520  -13.4180 C.3   101  LEU101      0.1596
    153  C          0.8800    0.9670  -13.9000 C.2   101  LEU101      0.2287
    154  O          0.9920    2.1680  -14.1490 O.2   101  LEU101     -0.2864
    155  CB         2.0660    0.0700  -11.8900 C.3   101  LEU101      0.0297
    156  CG         1.9000   -1.3370  -11.3110 C.3   101  LEU101      0.0022
    157  CD1        3.1270   -2.1890  -11.6060 C.3   101  LEU101      0.0001
    158  CD2        1.6420   -1.2650   -9.8140 C.3   101  LEU101      0.0001
@<TRIPOS>BOND
     1   139   140    1
     2   139   138    1
     3   140   141    1
     4   136   135    2
     5   137   138    1
     6   137   134    1
     7   149   148    2
     8   135   134    1
     9   135   142   am
    10   145   144    2
    11   147   148    1
    12   147   146    1
    13   143   142    1
    14   143   144    1
    15   143   146    1
    16   134   133    1
    17   148   150   am
    18   144   151   am
    19   154   153    2
    20   153   152    1
    21   151   152    1
    22   133   124   am
    23   152   155    1
    24   125   124    2
    25   124   123    1
    26   155   156    1
    27   157   156    1
    28   123   122    1
    29   123   126    1
    30   156   158    1
    31   122   118   am
    32   119   118    2
    33   116   117    1
    34   126   127    1
    35   118   117    1
    36   117   120    1
    37    64    63    1
    38    63    62    1
    39    62    61    1
    40    61    60    1
    41   127   128   ar
    42   127   129   ar
    43   128   130   ar
    44   120   121    1
    45   129   131   ar
    46    60    57    1
    47   130   132   ar
    48    56    57    1
    49    57    58    1
    50   131   132   ar
    51   106   104    1
    52    58    65   am
    53    58    59    2
    54    65    66    1
    55   110   109    2
    56   104   105    1
    57   104   101    1
    58    82    80    1
    59    68    67    2
    60    80    79    1
    61   109   108    1
    62    99    97    1
    63   107   108    1
    64   107   102   am
    65    11     9    1
    66   111   108    1
    67   111   112    1
    68    91    90    1
    69    67    66    1
    70    67    75   am
    71   101   102    1
    72   101   100    1
    73    66    69    1
    74    72    70   ar
    75    72    74   ar
    76    81    79    1
    77   102   103    2
    78    79    76    1
    79    69    70    1
    80    97    96    1
    81    75    76    1
    82    76    77    1
    83   100    94   am
    84   112   113    1
    85    70    71   ar
    86   114   113   ar
    87    74    73   ar
    88     9    10    1
    89     9     8    2
    90   113   115   ar
    91    90    89    1
    92    89    88    1
    93    95    94    2
    94    94    93    1
    95    96    93    1
    96    96    98    1
    97     8     7    1
    98    73    71   ar
    99    77    83   am
   100    77    78    2
   101    51    50    2
   102    83    84    1
   103    88    87    1
   104    93    92    1
   105    54    52    1
   106    50    49    1
   107    52    49    1
   108    52    53    1
   109    86    85    2
   110     7     6    1
   111    87    84    1
   112    84    85    1
   113    55    53    1
   114    49    48    1
   115     6     5    1
   116     4     3    2
   117    48    45   am
   118     3     2    1
   119     5     2    1
   120     2     1    1
   121    45    46    2
   122    45    44    1
   123    42    40   ar
   124    40    39    1
   125    40    41   ar
   126    32    31    1
   127    44    47    1
   128    44    43    1
   129    39    38    1
   130    21    20    1
   131    18    19    1
   132    18    17    1
   133    20    19    2
   134    20    22    1
   135    31    33    1
   136    31    30    2
   137    38    35    1
   138    17    16    1
   139    12    13    1
   140    30    29    1
   141    29    28    1
   142    16    13    1
   143    35    34    1
   144    35    36    1
   145    13    14    1
   146    15    14    2
   147    28    27    1
   148    36    37    2
   149    27    24    1
   150    23    24    1
   151    24    25    1
   152    26    25    2
