@<TRIPOS>MOLECULE
tmp/2lobA00.pdb
 165 160 0 0 0
SMALL
GASTEIGER

@<TRIPOS>ATOM
      1  N        141.2270   -2.9570   13.0440 N.3    14  GLY14      -0.1210
      2  CA       141.2770   -3.6270   11.7570 C.3    14  GLY14       0.1956
      3  C        140.4740   -2.8960   10.7030 C.2    14  GLY14       0.2612
      4  O        139.6490   -2.0410   11.0290 O.2    14  GLY14      -0.2717
      5  N        140.7110   -3.2210    9.4370 N.am   15  LEU15      -0.1965
      6  CA       139.9940   -2.5720    8.3490 C.3    15  LEU15       0.1728
      7  C        138.9420   -3.5010    7.7430 C.2    15  LEU15       0.2617
      8  O        137.7620   -3.4160    8.0760 O.2    15  LEU15      -0.2715
      9  CB       140.9760   -2.1000    7.2710 C.3    15  LEU15       0.0311
     10  CG       140.6270   -0.7610    6.6160 C.3    15  LEU15       0.0022
     11  CD1      141.8970   -0.0320    6.2050 C.3    15  LEU15       0.0001
     12  CD2      139.7110   -0.9630    5.4140 C.3    15  LEU15       0.0001
     13  N        139.3820   -4.3780    6.8480 N.am   16  GLY16      -0.1940
     14  CA       138.4800   -5.3010    6.1860 C.3    16  GLY16       0.2014
     15  C        138.6790   -5.2880    4.6780 C.2    16  GLY16       0.2639
     16  O        137.7820   -5.6510    3.9180 O.2    16  GLY16      -0.2714
     17  N        139.8680   -4.8620    4.2560 N.am   17  ILE17      -0.1963
     18  CA       140.2240   -4.7880    2.8470 C.3    17  ILE17       0.1727
     19  C        141.6060   -5.3470    2.6390 C.2    17  ILE17       0.2617
     20  O        142.4120   -5.4160    3.5770 O.2    17  ILE17      -0.2715
     21  CB       140.1740   -3.3510    2.2920 C.3    17  ILE17       0.0290
     22  CG1      140.5960   -3.3110    0.8200 C.3    17  ILE17       0.0022
     23  CG2      141.0420   -2.4120    3.1110 C.3    17  ILE17       0.0023
     24  CD1      140.4210   -1.9520    0.1780 C.3    17  ILE17       0.0001
     25  N        141.8690   -5.7490    1.4080 N.am   18  SER18      -0.1936
     26  CA       143.1670   -6.3130    1.0770 C.3    18  SER18       0.2055
     27  C        143.7420   -5.6600   -0.1620 C.2    18  SER18       0.2643
     28  O        143.0110   -5.2740   -1.0770 O.2    18  SER18      -0.2714
     29  CB       143.0460   -7.8160    0.8460 C.3    18  SER18       0.2130
     30  OG       144.2890   -8.3760    0.4590 O.3    18  SER18      -0.2179
     31  N        145.0650   -5.5340   -0.1750 N.am   19  ILE19      -0.1963
     32  CA       145.7550   -4.9130   -1.2940 C.3    19  ILE19       0.1727
     33  C        147.0540   -5.6340   -1.6580 C.2    19  ILE19       0.2617
     34  O        147.6720   -6.3480   -0.8380 O.2    19  ILE19      -0.2715
     35  CB       146.0580   -3.4010   -1.0580 C.3    19  ILE19       0.0290
     36  CG1      146.0440   -3.0590    0.4330 C.3    19  ILE19       0.0022
     37  CG2      145.0710   -2.4980   -1.8030 C.3    19  ILE19       0.0023
     38  CD1      146.7160   -1.7430    0.7580 C.3    19  ILE19       0.0001
     39  N        147.4770   -5.3960   -2.8930 N.am   20  THR20      -0.1937
     40  CA       148.7140   -5.9540   -3.4210 C.3    20  THR20       0.2028
     41  C        149.1470   -5.1730   -4.6400 C.2    20  THR20       0.2642
     42  O        148.3280   -4.8290   -5.4930 O.2    20  THR20      -0.2714
     43  CB       148.5650   -7.4290   -3.7690 C.3    20  THR20       0.1808
     44  OG1      149.6270   -7.8550   -4.6070 O.3    20  THR20      -0.2208
     45  CG2      147.2730   -7.7490   -4.4710 C.3    20  THR20       0.0379
     46  N        150.4290   -4.8940   -4.7210 N.am   21  GLY21      -0.1954
     47  CA       150.9380   -4.1600   -5.8350 C.3    21  GLY21       0.1869
     48  C        152.1650   -3.3610   -5.4860 C.2    21  GLY21       0.2309
     49  O        152.5220   -3.2080   -4.3240 O.2    21  GLY21      -0.2863
     50  N        157.4670   -4.2400   -6.9720 N.3    24  GLU24      -0.1231
     51  CA       157.8470   -5.6250   -6.7520 C.3    24  GLU24       0.1699
     52  C        157.0190   -6.5380   -7.6430 C.2    24  GLU24       0.2592
     53  O        157.5410   -7.4770   -8.2450 O.2    24  GLU24      -0.2718
     54  CB       157.6550   -6.0040   -5.2750 C.3    24  GLU24       0.0402
     55  CG       157.1520   -7.4290   -5.0500 C.3    24  GLU24       0.1161
     56  CD       156.7860   -7.7060   -3.6060 C.2    24  GLU24       0.3649
     57  OE1      156.4150   -6.7510   -2.8930 O.co2  24  GLU24      -0.2457
     58  OE2      156.8670   -8.8790   -3.1890 O.co2  24  GLU24      -0.2457
     59  N        155.7220   -6.2520   -7.7320 N.am   25  HIS25      -0.1976
     60  CA       154.8350   -7.0460   -8.5560 C.3    25  HIS25       0.1656
     61  C        154.5930   -6.3540   -9.8790 C.2    25  HIS25       0.2291
     62  O        153.7100   -6.7280  -10.6440 O.2    25  HIS25      -0.2864
     63  CB       153.5070   -7.2900   -7.8320 C.3    25  HIS25       0.0771
     64  CG       153.6630   -7.7080   -6.3980 C.ar   25  HIS25       0.0820
     65  ND1      153.5830   -9.0200   -5.9820 N.ar   25  HIS25      -0.2267
     66  CD2      153.8930   -6.9770   -5.2800 C.ar   25  HIS25       0.1154
     67  CE1      153.7560   -9.0770   -4.6730 C.ar   25  HIS25       0.1986
     68  NE2      153.9490   -7.8520   -4.2210 N.ar   25  HIS25      -0.2212
     69  N        140.8410   -8.1260   -2.2600 N.3    33  GLU33      -0.1245
     70  CA       140.0070   -8.8790   -1.3420 C.3    33  GLU33       0.1567
     71  C        139.1770   -7.9470   -0.4840 C.2    33  GLU33       0.2260
     72  O        139.7060   -7.1720    0.3100 O.2    33  GLU33      -0.2867
     73  CB       140.8640   -9.7930   -0.4660 C.3    33  GLU33       0.0388
     74  CG       140.4850  -11.2600   -0.5670 C.3    33  GLU33       0.1160
     75  CD       141.0760  -12.0900    0.5530 C.2    33  GLU33       0.3649
     76  OE1      142.2280  -11.8170    0.9520 O.co2  33  GLU33      -0.2457
     77  OE2      140.3870  -13.0120    1.0340 O.co2  33  GLU33      -0.2457
     78  N        135.9600   -8.0970    2.0830 N.3    35  HIS35      -0.1241
     79  CA       134.9980   -8.8160    2.8970 C.3    35  HIS35       0.1621
     80  C        133.6580   -8.0820    2.9420 C.2    35  HIS35       0.2264
     81  O        133.6160   -6.8610    3.0800 O.2    35  HIS35      -0.2867
     82  CB       135.5610   -8.9380    4.3070 C.3    35  HIS35       0.0745
     83  CG       136.9730   -9.4170    4.3070 C.ar   35  HIS35       0.0817
     84  ND1      137.2980  -10.7300    4.1240 N.ar   35  HIS35      -0.2268
     85  CD2      138.1510   -8.7510    4.4190 C.ar   35  HIS35       0.1154
     86  CE1      138.6020  -10.8600    4.1210 C.ar   35  HIS35       0.1986
     87  NE2      139.1590   -9.6760    4.3020 N.ar   35  HIS35      -0.2212
     88  N        157.6480    1.3200   -4.2100 N.3    63  THR63      -0.1203
     89  CA       158.5330    0.2220   -3.8320 C.3    63  THR63       0.1994
     90  C        157.7260   -1.0500   -4.0360 C.2    63  THR63       0.2618
     91  O        157.6530   -1.6030   -5.1310 O.2    63  THR63      -0.2717
     92  CB       159.1060    0.3690   -2.3790 C.3    63  THR63       0.1784
     93  OG1      160.4110    0.9160   -2.4350 O.3    63  THR63      -0.2211
     94  CG2      159.2020   -0.9230   -1.5350 C.3    63  THR63       0.0376
     95  N        157.0870   -1.4460   -2.9840 N.am   64  LYS64      -0.1965
     96  CA       156.2020   -2.5850   -2.9430 C.3    64  LYS64       0.1728
     97  C        154.9550   -2.1200   -2.2490 C.2    64  LYS64       0.2616
     98  O        154.9120   -1.0250   -1.6900 O.2    64  LYS64      -0.2715
     99  CB       156.9010   -3.7320   -2.2400 C.3    64  LYS64       0.0311
    100  CG       158.3020   -4.0150   -2.7700 C.3    64  LYS64       0.0038
    101  CD       158.8530   -5.3340   -2.2470 C.3    64  LYS64       0.0206
    102  CE       160.3720   -5.3130   -2.1750 C.3    64  LYS64       0.1093
    103  NZ       160.9960   -5.6340   -3.4880 N.3    64  LYS64      -0.1314
    104  N        153.9490   -2.9160   -2.3160 N.am   65  HIS65      -0.1959
    105  CA       152.6620   -2.5660   -1.7220 C.3    65  HIS65       0.1787
    106  C        152.8030   -2.0430   -0.3150 C.2    65  HIS65       0.2620
    107  O        152.0410   -1.1700    0.1030 O.2    65  HIS65      -0.2715
    108  CB       151.7560   -3.7960   -1.6930 C.3    65  HIS65       0.0785
    109  CG       150.6610   -3.7870   -0.6680 C.ar   65  HIS65       0.0821
    110  ND1      149.5540   -4.5980   -0.7140 N.ar   65  HIS65      -0.2267
    111  CD2      150.5300   -3.0620    0.4340 C.ar   65  HIS65       0.1154
    112  CE1      148.7870   -4.3470    0.3310 C.ar   65  HIS65       0.1986
    113  NE2      149.3610   -3.4140    1.0430 N.ar   65  HIS65      -0.2212
    114  N        153.7490   -2.5670    0.4180 N.am   66  LYS66      -0.1963
    115  CA       153.9230   -2.1520    1.8000 C.3    66  LYS66       0.1728
    116  C        154.1730   -0.6670    1.8800 C.2    66  LYS66       0.2616
    117  O        154.0110   -0.0520    2.9330 O.2    66  LYS66      -0.2715
    118  CB       155.0730   -2.8980    2.4180 C.3    66  LYS66       0.0311
    119  CG       154.8650   -3.2440    3.8670 C.3    66  LYS66       0.0038
    120  CD       156.1670   -3.1160    4.6500 C.3    66  LYS66       0.0206
    121  CE       157.2500   -4.0430    4.1030 C.3    66  LYS66       0.1093
    122  NZ       158.2520   -3.3220    3.2560 N.3    66  LYS66      -0.1314
    123  N        154.5040   -0.0850    0.7470 N.am   67  GLU67      -0.1977
    124  CA       154.6970    1.3400    0.6840 C.3    67  GLU67       0.1602
    125  C        153.3610    2.0060    0.9920 C.2    67  GLU67       0.2287
    126  O        153.3090    3.1360    1.4780 O.2    67  GLU67      -0.2864
    127  CB       155.1880    1.7270   -0.7010 C.3    67  GLU67       0.0415
    128  CG       156.6970    1.6710   -0.8490 C.3    67  GLU67       0.1163
    129  CD       157.4470    2.2870    0.3220 C.2    67  GLU67       0.3649
    130  OE1      156.8750    3.1670    1.0010 O.co2  67  GLU67      -0.2457
    131  OE2      158.6050    1.8860    0.5590 O.co2  67  GLU67      -0.2457
    132  N        151.1010    0.1840    2.9170 N.3    69  VAL69      -0.1245
    133  CA       150.9380   -0.3320    4.2640 C.3    69  VAL69       0.1561
    134  C        151.5680    0.6070    5.2670 C.2    69  VAL69       0.2260
    135  O        150.9730    0.9490    6.2870 O.2    69  VAL69      -0.2867
    136  CB       151.6230   -1.7020    4.3800 C.3    69  VAL69       0.0252
    137  CG1      151.9690   -2.0530    5.8070 C.3    69  VAL69       0.0019
    138  CG2      150.7470   -2.7700    3.7980 C.3    69  VAL69       0.0019
    139  N        149.2810    3.5250    5.2610 N.3    72  LEU72      -0.1245
    140  CA       148.0290    3.3150    5.9470 C.3    72  LEU72       0.1561
    141  C        148.2320    2.9670    7.4290 C.2    72  LEU72       0.2260
    142  O        147.4360    3.3580    8.2830 O.2    72  LEU72      -0.2867
    143  CB       147.2120    2.2300    5.2420 C.3    72  LEU72       0.0270
    144  CG       147.9280    0.9220    4.8900 C.3    72  LEU72       0.0019
    145  CD1      147.8240   -0.0630    6.0470 C.3    72  LEU72       0.0001
    146  CD2      147.3380    0.3140    3.6270 C.3    72  LEU72       0.0001
    147  N        141.1580    6.0400    6.6800 N.3    79  ILE79      -0.1245
    148  CA       141.7820    5.6350    5.4700 C.3    79  ILE79       0.1561
    149  C        141.0710    6.2820    4.3370 C.2    79  ILE79       0.2260
    150  O        139.9210    5.9680    4.0290 O.2    79  ILE79      -0.2867
    151  CB       141.7430    4.1270    5.2650 C.3    79  ILE79       0.0252
    152  CG1      142.1820    3.4100    6.5330 C.3    79  ILE79       0.0019
    153  CG2      142.6180    3.7380    4.0860 C.3    79  ILE79       0.0019
    154  CD1      143.5660    3.8090    6.9930 C.3    79  ILE79       0.0001
    155  N        140.7400    6.6850    0.5960 N.3    81  PHE81      -0.1241
    156  CA       141.0520    5.9020   -0.5750 C.3    81  PHE81       0.1605
    157  C        140.7950    6.6540   -1.8680 C.2    81  PHE81       0.2264
    158  O        139.6540    6.9460   -2.2120 O.2    81  PHE81      -0.2867
    159  CB       140.1980    4.6370   -0.5940 C.3    81  PHE81       0.0534
    160  CG       140.5990    3.5360    0.3580 C.ar   81  PHE81      -0.0203
    161  CD1      140.3240    3.6070    1.7260 C.ar   81  PHE81      -0.0042
    162  CD2      141.2120    2.3950   -0.1350 C.ar   81  PHE81      -0.0042
    163  CE1      140.6640    2.5610    2.5630 C.ar   81  PHE81      -0.0003
    164  CE2      141.5460    1.3490    0.7030 C.ar   81  PHE81      -0.0003
    165  CZ       141.2720    1.4310    2.0510 C.ar   81  PHE81      -0.0000
@<TRIPOS>BOND
     1    62    61    2
     2    61    60    1
     3    60    63    1
     4    60    59    1
     5    53    52    2
     6    63    64    1
     7    59    52   am
     8    52    51    1
     9    50    51    1
    10    51    54    1
    11    64    65   ar
    12    64    66   ar
    13    65    67   ar
    14    47    48    1
    15    47    46    1
    16    42    41    2
    17    48    49    2
    18    66    68   ar
    19    54    55    1
    20    91    90    2
    21    55    56    1
    22    46    41   am
    23    67    68   ar
    24    41    40    1
    25    44    43    1
    26    45    43    1
    27    88    89    1
    28    90    89    1
    29    90    95   am
    30    89    92    1
    31    43    40    1
    32    56    58   ar
    33    56    57   ar
    34   103   102    1
    35    40    39    1
    36    95    96    1
    37    96    97    1
    38    96    99    1
    39    39    33   am
    40   100   101    1
    41   100    99    1
    42    93    92    1
    43    92    94    1
    44   104    97   am
    45   104   105    1
    46    69    70    1
    47    97    98    2
    48   101   102    1
    49   158   157    2
    50   157   156    1
    51    37    35    1
    52   105   108    1
    53   105   106    1
    54   108   109    1
    55    33    32    1
    56    33    34    2
    57    70    71    1
    58    70    73    1
    59    32    35    1
    60    32    31    1
    61    28    27    2
    62    35    36    1
    63   128   127    1
    64   128   129    1
    65   110   109   ar
    66   110   112   ar
    67   127   124    1
    68   109   111   ar
    69   159   156    1
    70   159   160    1
    71   156   155    1
    72    74    73    1
    73    74    75    1
    74    71    72    2
    75   106   107    2
    76   106   114   am
    77    31    27   am
    78    27    26    1
    79   162   160   ar
    80   162   164   ar
    81    24    22    1
    82   129   131   ar
    83   129   130   ar
    84   112   113   ar
    85   160   161   ar
    86   114   115    1
    87    36    38    1
    88   111   113   ar
    89    30    29    1
    90    75    76   ar
    91    75    77   ar
    92   124   123    1
    93   124   125    1
    94   164   165   ar
    95   123   116   am
    96    22    21    1
    97    29    26    1
    98   125   126    2
    99    26    25    1
   100    25    19   am
   101   161   163   ar
   102   115   116    1
   103   115   118    1
   104   116   117    2
   105   165   163   ar
   106    78    79    1
   107    21    18    1
   108    21    23    1
   109   118   119    1
   110    19    18    1
   111    19    20    2
   112    18    17    1
   113    79    80    1
   114    79    82    1
   115   132   133    1
   116    80    81    2
   117   122   121    1
   118   146   144    1
   119   138   136    1
   120   119   120    1
   121    16    15    2
   122   150   149    2
   123   153   151    1
   124   121   120    1
   125    86    84   ar
   126    86    87   ar
   127    84    83   ar
   128    17    15   am
   129   133   136    1
   130   133   134    1
   131    87    85   ar
   132    83    82    1
   133    83    85   ar
   134   149   148    1
   135   136   137    1
   136    15    14    1
   137   144   143    1
   138   144   145    1
   139   143   140    1
   140   139   140    1
   141   151   148    1
   142   151   152    1
   143   134   135    2
   144    12    10    1
   145   148   147    1
   146   140   141    1
   147    14    13    1
   148    11    10    1
   149   152   154    1
   150    10     9    1
   151    13     7   am
   152     9     6    1
   153   141   142    2
   154     7     8    2
   155     7     6    1
   156     6     5    1
   157     5     3   am
   158     3     4    2
   159     3     2    1
   160     2     1    1
