@<TRIPOS>MOLECULE
tmp/2lsvA00.pdb
 147 139 0 0 0
SMALL
GASTEIGER

@<TRIPOS>ATOM
      1  N         20.2270   -2.1750  -11.2500 N.3     7  LYS7       -0.1231
      2  CA        19.6960   -0.8200  -11.2220 C.3     7  LYS7        0.1693
      3  C         20.8040    0.2190  -11.4000 C.2     7  LYS7        0.2591
      4  O         20.5150    1.3960  -11.5930 O.2     7  LYS7       -0.2718
      5  CB        19.0370   -0.6560   -9.8620 C.3     7  LYS7        0.0285
      6  CG        18.2520    0.6450   -9.7550 C.3     7  LYS7        0.0035
      7  CD        17.6290    0.6830   -8.3730 C.3     7  LYS7        0.0206
      8  CE        18.7310    0.6460   -7.3150 C.3     7  LYS7        0.1093
      9  NZ        18.2700    1.1820   -6.0170 N.3     7  LYS7       -0.1314
     10  N         22.0670   -0.2100  -11.3400 N.am    8  GLU8       -0.1979
     11  CA        23.2420    0.6470  -11.4790 C.3     8  GLU8        0.1602
     12  C         23.9970    0.3430  -12.7660 C.2     8  GLU8        0.2287
     13  O         24.7320    1.1900  -13.2720 O.2     8  GLU8       -0.2864
     14  CB        24.1590    0.4130  -10.2870 C.3     8  GLU8        0.0415
     15  CG        23.4290    0.8730   -9.0320 C.3     8  GLU8        0.1163
     16  CD        23.6000    2.3660   -8.7700 C.2     8  GLU8        0.3649
     17  OE1       24.7650    2.8130   -8.6800 O.co2   8  GLU8       -0.2457
     18  OE2       22.5620    3.0510   -8.6650 O.co2   8  GLU8       -0.2457
     19  N         21.8160    1.7970  -15.3780 N.3    11  ASN11      -0.1240
     20  CA        21.7820    3.1760  -14.9190 C.3    11  ASN11       0.1653
     21  C         22.6290    4.0710  -15.8110 C.2    11  ASN11       0.2266
     22  O         22.4860    5.2860  -15.7590 O.2    11  ASN11      -0.2867
     23  CB        22.3470    3.1870  -13.5050 C.3    11  ASN11       0.1155
     24  CG        21.9330    4.3560  -12.6240 C.2    11  ASN11       0.2627
     25  OD1       21.7570    5.4790  -13.0780 O.2    11  ASN11      -0.2716
     26  ND2       21.7820    4.0720  -11.3340 N.am   11  ASN11      -0.0877
     27  N         20.8560    3.5510  -20.0290 N.3    14  PHE14      -0.1227
     28  CA        19.7100    4.4020  -20.2940 C.3    14  PHE14       0.1736
     29  C         20.1830    5.8000  -20.6530 C.2    14  PHE14       0.2595
     30  O         19.6230    6.4410  -21.5400 O.2    14  PHE14      -0.2718
     31  CB        18.8730    4.4490  -19.0140 C.3    14  PHE14       0.0547
     32  CG        18.0750    5.7130  -18.7880 C.ar   14  PHE14      -0.0202
     33  CD1       16.9790    6.0330  -19.5980 C.ar   14  PHE14      -0.0042
     34  CD2       18.4370    6.5720  -17.7410 C.ar   14  PHE14      -0.0042
     35  CE1       16.2450    7.2050  -19.3660 C.ar   14  PHE14      -0.0003
     36  CE2       17.6670    7.7010  -17.4600 C.ar   14  PHE14      -0.0003
     37  CZ        16.5840    8.0330  -18.2840 C.ar   14  PHE14      -0.0000
     38  N         21.2190    6.2660  -19.9570 N.am   15  LYS15      -0.1980
     39  CA        21.7230    7.6080  -20.1460 C.3    15  LYS15       0.1596
     40  C         22.5570    7.7260  -21.4260 C.2    15  LYS15       0.2287
     41  O         22.7990    8.8330  -21.9010 O.2    15  LYS15      -0.2864
     42  CB        22.5440    7.9990  -18.9220 C.3    15  LYS15       0.0298
     43  CG        21.7900    7.5900  -17.6680 C.3    15  LYS15       0.0038
     44  CD        22.4840    8.1330  -16.4240 C.3    15  LYS15       0.0206
     45  CE        22.2320    9.6340  -16.3010 C.3    15  LYS15       0.1093
     46  NZ        22.8450   10.1780  -15.0750 N.3    15  LYS15      -0.1314
     47  N         16.6910   -3.4770  -15.8910 N.3    26  TYR26      -0.1241
     48  CA        15.6940   -2.8760  -15.0150 C.3    26  TYR26       0.1605
     49  C         14.5430   -3.8390  -14.7610 C.2    26  TYR26       0.2264
     50  O         13.9760   -3.8400  -13.6750 O.2    26  TYR26      -0.2867
     51  CB        15.1210   -1.6860  -15.7700 C.3    26  TYR26       0.0534
     52  CG        16.0140   -0.4850  -15.9590 C.ar   26  TYR26      -0.0201
     53  CD1       17.2690   -0.3830  -15.3340 C.ar   26  TYR26      -0.0009
     54  CD2       15.5430    0.5630  -16.7620 C.ar   26  TYR26      -0.0009
     55  CE1       18.0230    0.7880  -15.4890 C.ar   26  TYR26       0.0417
     56  CE2       16.2800    1.7400  -16.9050 C.ar   26  TYR26       0.0417
     57  CZ        17.5290    1.8570  -16.2630 C.ar   26  TYR26       0.1957
     58  OH        18.2540    3.0010  -16.3840 O.3    26  TYR26      -0.2866
     59  N         11.0480    1.4890   -7.7470 N.3    38  VAL38      -0.1245
     60  CA        12.1660    1.8300   -8.6270 C.3    38  VAL38       0.1561
     61  C         12.3590    0.8360   -9.7570 C.2    38  VAL38       0.2260
     62  O         12.8950    1.1470  -10.8180 O.2    38  VAL38      -0.2867
     63  CB        13.4330    2.1350   -7.8560 C.3    38  VAL38       0.0252
     64  CG1       14.0930    1.1100   -7.0030 C.3    38  VAL38       0.0019
     65  CG2       14.5100    2.5460   -8.8330 C.3    38  VAL38       0.0019
     66  N         10.2020    2.3680  -12.0400 N.3    41  SER41      -0.1202
     67  CA        10.6540    3.7250  -12.3160 C.3    41  SER41       0.2020
     68  C         11.7380    3.7280  -13.3900 C.2    41  SER41       0.2618
     69  O         11.7460    4.5890  -14.2680 O.2    41  SER41      -0.2717
     70  CB        11.2030    4.3400  -11.0200 C.3    41  SER41       0.2103
     71  OG        12.5870    4.1140  -10.9370 O.3    41  SER41      -0.2182
     72  N         12.6540    2.7570  -13.3240 N.am   42  ASN42      -0.1974
     73  CA        13.7650    2.6660  -14.2530 C.3    42  ASN42       0.1688
     74  C         13.2490    2.2490  -15.6290 C.2    42  ASN42       0.2292
     75  O         13.5010    2.9270  -16.6240 O.2    42  ASN42      -0.2864
     76  CB        14.7620    1.6450  -13.7040 C.3    42  ASN42       0.1181
     77  CG        15.6680    2.2140  -12.6240 C.2    42  ASN42       0.2629
     78  OD1       16.8630    1.9300  -12.6010 O.2    42  ASN42      -0.2716
     79  ND2       15.1220    3.0200  -11.7220 N.am   42  ASN42      -0.0877
     80  N         11.1670    5.2340  -17.1590 N.3    45  MET45      -0.1245
     81  CA        11.8090    6.4180  -17.7110 C.3    45  MET45       0.1570
     82  C         12.3370    6.1240  -19.1120 C.2    45  MET45       0.2261
     83  O         12.3340    6.9870  -19.9860 O.2    45  MET45      -0.2867
     84  CB        12.9370    6.8680  -16.7780 C.3    45  MET45       0.0387
     85  CG        13.0790    8.3920  -16.7360 C.3    45  MET45       0.0595
     86  SD        13.4460    9.2200  -18.3000 S.3    45  MET45      -0.1393
     87  CE        11.8020    9.8340  -18.7400 C.3    45  MET45       0.0692
     88  N         11.7380    7.7190  -23.3490 N.3    49  LYS49      -0.1245
     89  CA        12.8180    7.8770  -24.3000 C.3    49  LYS49       0.1561
     90  C         12.7250    6.9080  -25.4830 C.2    49  LYS49       0.2260
     91  O         13.4430    7.0760  -26.4670 O.2    49  LYS49      -0.2867
     92  CB        14.1140    7.7080  -23.5200 C.3    49  LYS49       0.0271
     93  CG        14.9200    8.9940  -23.5860 C.3    49  LYS49       0.0035
     94  CD        14.2250   10.1060  -22.8030 C.3    49  LYS49       0.0206
     95  CE        14.3490    9.8490  -21.3110 C.3    49  LYS49       0.1093
     96  NZ        14.1610   11.1010  -20.5540 N.3    49  LYS49      -0.1314
     97  N         11.3330    8.6080   -3.1200 N.3    74  ALA74      -0.1231
     98  CA        12.1900    9.0700   -4.1990 C.3    74  ALA74       0.1694
     99  C         11.5520    8.8060   -5.5470 C.2    74  ALA74       0.2591
    100  O         11.6780    9.5800   -6.4910 O.2    74  ALA74      -0.2718
    101  CB        13.4550    8.2260   -4.1620 C.3    74  ALA74       0.0304
    102  N         10.8600    7.6740   -5.6010 N.am   75  ILE75      -0.1980
    103  CA        10.3200    7.1280   -6.8180 C.3    75  ILE75       0.1595
    104  C          8.8690    7.5350   -6.9500 C.2    75  ILE75       0.2287
    105  O          8.3730    7.7580   -8.0490 O.2    75  ILE75      -0.2864
    106  CB        10.4340    5.6230   -6.7070 C.3    75  ILE75       0.0276
    107  CG1       11.9000    5.2430   -6.5430 C.3    75  ILE75       0.0022
    108  CG2        9.8360    5.0070   -7.9630 C.3    75  ILE75       0.0022
    109  CD1       12.6930    5.3010   -7.8420 C.3    75  ILE75       0.0001
    110  N          7.9060   10.2110   -6.4040 N.3    77  SER77      -0.1202
    111  CA         8.0600   11.5210   -7.0130 C.3    77  SER77       0.2020
    112  C          8.1540   11.4120   -8.5330 C.2    77  SER77       0.2618
    113  O          7.7850   12.3420   -9.2490 O.2    77  SER77      -0.2717
    114  CB         9.3590   12.1100   -6.4610 C.3    77  SER77       0.2103
    115  OG         9.4990   13.4550   -6.8590 O.3    77  SER77      -0.2182
    116  N          8.6480   10.2740   -9.0270 N.am   78  LYS78      -0.1979
    117  CA         8.8510   10.0420  -10.4470 C.3    78  LYS78       0.1596
    118  C          7.6190    9.4010  -11.0650 C.2    78  LYS78       0.2287
    119  O          7.2740    9.6970  -12.2020 O.2    78  LYS78      -0.2864
    120  CB        10.0540    9.1190  -10.6200 C.3    78  LYS78       0.0298
    121  CG        11.2970    9.8340  -10.1000 C.3    78  LYS78       0.0038
    122  CD        12.5340    8.9540  -10.2460 C.3    78  LYS78       0.0206
    123  CE        13.7290    9.8250   -9.8870 C.3    78  LYS78       0.1093
    124  NZ        14.9960    9.1470  -10.2050 N.3    78  LYS78      -0.1314
    125  N          5.8300   12.0860  -12.4500 N.3    81  TYR81      -0.1227
    126  CA         6.4310   12.9350  -13.4760 C.3    81  TYR81       0.1736
    127  C          6.2570   12.3380  -14.8690 C.2    81  TYR81       0.2595
    128  O          5.4700   12.8390  -15.6720 O.2    81  TYR81      -0.2718
    129  CB         7.9220   13.0990  -13.1890 C.3    81  TYR81       0.0548
    130  CG         8.6990   13.7030  -14.3360 C.ar   81  TYR81      -0.0200
    131  CD1        8.5770   15.0660  -14.6340 C.ar   81  TYR81      -0.0009
    132  CD2        9.5440   12.8910  -15.1090 C.ar   81  TYR81      -0.0009
    133  CE1        9.3100   15.6240  -15.6920 C.ar   81  TYR81       0.0417
    134  CE2       10.2910   13.4380  -16.1600 C.ar   81  TYR81       0.0417
    135  CZ        10.1750   14.8140  -16.4570 C.ar   81  TYR81       0.1957
    136  OH        10.8990   15.3560  -17.4780 O.3    81  TYR81      -0.2866
    137  N          6.9950   11.2610  -15.1610 N.am   82  ARG82      -0.1980
    138  CA         6.9530   10.6250  -16.4710 C.3    82  ARG82       0.1597
    139  C          5.6580    9.8420  -16.6420 C.2    82  ARG82       0.2287
    140  O          5.3990    9.2970  -17.7110 O.2    82  ARG82      -0.2864
    141  CB         8.2250    9.8160  -16.7620 C.3    82  ARG82       0.0334
    142  CG         8.3610    8.4880  -16.0170 C.3    82  ARG82       0.0492
    143  CD         8.7970    8.6850  -14.5670 C.3    82  ARG82       0.2205
    144  NE        10.1980    9.1230  -14.4680 N.pl3  82  ARG82      -0.0865
    145  CZ        11.1920    8.3860  -13.9640 C.cat  82  ARG82       0.5346
    146  NH1       10.9770    7.1430  -13.5530 N.pl3  82  ARG82       0.1354
    147  NH2       12.4130    8.9010  -13.8690 N.pl3  82  ARG82       0.1354
@<TRIPOS>BOND
     1    91    90    2
     2    90    89    1
     3    89    92    1
     4    89    88    1
     5    93    92    1
     6    93    94    1
     7    94    95    1
     8    41    40    2
     9    30    29    2
    10    40    39    1
    11    95    96    1
    12    29    28    1
    13    29    38   am
    14    28    27    1
    15    28    31    1
    16    39    38    1
    17    39    42    1
    18    83    82    2
    19    33    35   ar
    20    33    32   ar
    21    35    37   ar
    22    82    81    1
    23    31    32    1
    24    42    43    1
    25    32    34   ar
    26    87    86    1
    27    86    85    1
    28    37    36   ar
    29    34    36   ar
    30    81    80    1
    31    81    84    1
    32   140   139    2
    33    43    44    1
    34   136   135    1
    35    56    54   ar
    36    56    57   ar
    37    84    85    1
    38    54    52   ar
    39   141   138    1
    40   141   142    1
    41   139   138    1
    42    75    74    2
    43   138   137    1
    44   135   134   ar
    45   135   133   ar
    46    44    45    1
    47    58    57    1
    48    45    46    1
    49    57    55   ar
    50   134   132   ar
    51   142   143    1
    52    52    51    1
    53    52    53   ar
    54    47    48    1
    55    21    22    2
    56    21    20    1
    57    51    48    1
    58   133   131   ar
    59   128   127    2
    60    74    73    1
    61    55    53   ar
    62    19    20    1
    63   137   127   am
    64   132   130   ar
    65    48    49    1
    66    20    23    1
    67   127   126    1
    68    49    50    2
    69   131   130   ar
    70   143   144    1
    71   144   145    2
    72   130   129    1
    73    69    68    2
    74    73    76    1
    75    73    72    1
    76   145   147    1
    77   145   146    1
    78    76    77    1
    79    23    24    1
    80   126   129    1
    81   126   125    1
    82    68    72   am
    83    68    67    1
    84    13    12    2
    85    25    24    2
    86    12    11    1
    87    24    26   am
    88    77    78    2
    89    77    79   am
    90    67    66    1
    91    67    70    1
    92   119   118    2
    93     4     3    2
    94    11    10    1
    95    11    14    1
    96     3    10   am
    97     3     2    1
    98     1     2    1
    99     2     5    1
   100   118   117    1
   101    70    71    1
   102    62    61    2
   103   120   117    1
   104   120   121    1
   105   117   116    1
   106    14    15    1
   107   122   121    1
   108   122   123    1
   109   124   123    1
   110     5     6    1
   111    61    60    1
   112     6     7    1
   113   113   112    2
   114    15    16    1
   115   116   112   am
   116    65    63    1
   117    16    17   ar
   118    16    18   ar
   119    60    63    1
   120    60    59    1
   121   112   111    1
   122     7     8    1
   123   105   104    2
   124   108   106    1
   125    63    64    1
   126   109   107    1
   127     8     9    1
   128   111   114    1
   129   111   110    1
   130   104   103    1
   131   115   114    1
   132   103   106    1
   133   103   102    1
   134   106   107    1
   135   100    99    2
   136   102    99   am
   137    99    98    1
   138    98   101    1
   139    98    97    1
