@<TRIPOS>MOLECULE
tmp/2ltqD00.pdb
 130 123 0 0 0
SMALL
GASTEIGER

@<TRIPOS>ATOM
      1  N       -136.2370  -41.5100 -136.0890 N.3    17  GLU17      -0.1245
      2  CA      -136.5920  -41.0360 -134.7630 C.3    17  GLU17       0.1567
      3  C       -138.1200  -41.1380 -134.4730 C.2    17  GLU17       0.2260
      4  O       -138.4970  -41.5480 -133.3830 O.2    17  GLU17      -0.2867
      5  CB      -136.1110  -39.5620 -134.5640 C.3    17  GLU17       0.0388
      6  CG      -137.1690  -38.5560 -134.9980 C.3    17  GLU17       0.1160
      7  CD      -138.1900  -38.2790 -133.8950 C.2    17  GLU17       0.3649
      8  OE1     -137.8020  -38.2530 -132.7290 O.co2  17  GLU17      -0.2457
      9  OE2     -139.3540  -38.0840 -134.2480 O.co2  17  GLU17      -0.2457
     10  N       -138.5100  -44.8340 -134.3470 N.3    20  ALA20      -0.1231
     11  CA      -137.8590  -45.2560 -133.1030 C.3    20  ALA20       0.1694
     12  C       -138.5520  -44.6490 -131.8790 C.2    20  ALA20       0.2591
     13  O       -138.4180  -45.1650 -130.7680 O.2    20  ALA20      -0.2718
     14  CB      -136.3800  -44.8720 -133.1270 C.3    20  ALA20       0.0304
     15  N       -139.2890  -43.5530 -132.0930 N.am   21  LEU21      -0.1980
     16  CA      -139.9950  -42.8590 -130.9970 C.3    21  LEU21       0.1596
     17  C       -140.7310  -43.8380 -130.0610 C.2    21  LEU21       0.2287
     18  O       -140.5830  -43.7430 -128.8380 O.2    21  LEU21      -0.2864
     19  CB      -140.9770  -41.8300 -131.5880 C.3    21  LEU21       0.0297
     20  CG      -140.9830  -40.4980 -130.8090 C.3    21  LEU21       0.0022
     21  CD1     -141.1250  -40.7390 -129.3130 C.3    21  LEU21       0.0001
     22  CD2     -139.7170  -39.6970 -131.1110 C.3    21  LEU21       0.0001
     23  N       -144.1310  -44.7480 -128.8670 N.3    23  PHE23      -0.1241
     24  CA      -144.9470  -44.1370 -127.8110 C.3    23  PHE23       0.1605
     25  C       -144.2030  -42.9900 -127.1070 C.2    23  PHE23       0.2264
     26  O       -142.9880  -43.0090 -126.9790 O.2    23  PHE23      -0.2867
     27  CB      -145.4060  -45.2000 -126.7900 C.3    23  PHE23       0.0534
     28  CG      -146.6760  -45.9190 -127.2410 C.ar   23  PHE23      -0.0203
     29  CD1     -147.8440  -45.2010 -127.5040 C.ar   23  PHE23      -0.0042
     30  CD2     -146.6780  -47.3090 -127.3770 C.ar   23  PHE23      -0.0042
     31  CE1     -149.0110  -45.8680 -127.9060 C.ar   23  PHE23      -0.0003
     32  CE2     -147.8450  -47.9760 -127.7800 C.ar   23  PHE23      -0.0003
     33  CZ      -149.0120  -47.2550 -128.0450 C.ar   23  PHE23      -0.0000
     34  N       -145.8500  -43.5030 -123.8270 N.3    29  LEU29      -0.1245
     35  CA      -144.5540  -43.9590 -123.1970 C.3    29  LEU29       0.1561
     36  C       -144.7030  -43.6490 -121.6240 C.2    29  LEU29       0.2260
     37  O       -145.8160  -43.5810 -121.0340 O.2    29  LEU29      -0.2867
     38  CB      -143.2240  -43.8150 -123.7240 C.3    29  LEU29       0.0270
     39  CG      -142.2940  -44.9990 -123.3400 C.3    29  LEU29       0.0019
     40  CD1     -142.7860  -46.3370 -123.8930 C.3    29  LEU29       0.0001
     41  CD2     -140.8790  -44.7010 -123.8650 C.3    29  LEU29       0.0001
     42  N       -141.5160  -41.7520 -119.5380 N.3    31  PRO31      -0.2116
     43  CA      -140.7340  -40.5550 -119.0860 C.3    31  PRO31       0.1372
     44  C       -141.4220  -39.2140 -119.3640 C.2    31  PRO31       0.2244
     45  O       -142.2060  -39.0830 -120.2990 O.2    31  PRO31      -0.2868
     46  CB      -139.4320  -40.6480 -119.8820 C.3    31  PRO31       0.0268
     47  CG      -139.7640  -41.4560 -121.0830 C.3    31  PRO31       0.0207
     48  CD      -140.7720  -42.4880 -120.5910 C.3    31  PRO31       0.0892
     49  N       -136.3930  -33.7710 -120.0630 N.3    35  CYS35      -0.1235
     50  CA      -136.1630  -34.3320 -121.3840 C.3    35  CYS35       0.1677
     51  C       -136.8760  -33.6650 -122.6560 C.2    35  CYS35       0.2270
     52  O       -136.2710  -33.7260 -123.7190 O.2    35  CYS35      -0.2867
     53  CB      -136.5620  -35.8820 -121.3700 C.3    35  CYS35       0.0956
     54  SG      -135.3530  -36.8420 -122.2890 S.3    35  CYS35      -0.0801
     55  N       -134.6920  -31.4930 -124.2670 N.3    38  GLU38      -0.1231
     56  CA      -133.7110  -32.2590 -125.0490 C.3    38  GLU38       0.1699
     57  C       -134.2630  -32.6810 -126.4150 C.2    38  GLU38       0.2592
     58  O       -133.5090  -32.7890 -127.3790 O.2    38  GLU38      -0.2718
     59  CB      -133.2890  -33.5140 -124.2580 C.3    38  GLU38       0.0402
     60  CG      -131.7840  -33.8110 -124.4180 C.3    38  GLU38       0.1161
     61  CD      -131.3180  -34.9160 -123.4440 C.2    38  GLU38       0.3649
     62  OE1     -132.1670  -35.4840 -122.7680 O.co2  38  GLU38      -0.2457
     63  OE2     -130.1030  -35.1750 -123.3960 O.co2  38  GLU38      -0.2457
     64  N       -135.5880  -32.8550 -126.4910 N.am   39  ARG39      -0.1980
     65  CA      -136.2340  -33.2390 -127.7420 C.3    39  ARG39       0.1597
     66  C       -136.0280  -32.1480 -128.7560 C.2    39  ARG39       0.2287
     67  O       -135.9560  -32.4010 -129.9510 O.2    39  ARG39      -0.2864
     68  CB      -137.7570  -33.4760 -127.4890 C.3    39  ARG39       0.0334
     69  CG      -138.6380  -32.2610 -128.0060 C.3    39  ARG39       0.0492
     70  CD      -138.7390  -32.3420 -129.5670 C.3    39  ARG39       0.2205
     71  NE      -138.1320  -33.5590 -130.1350 N.pl3  39  ARG39      -0.0865
     72  CZ      -138.7780  -34.3610 -131.0040 C.cat  39  ARG39       0.5346
     73  NH1     -140.0050  -34.0890 -131.4050 N.pl3  39  ARG39       0.1354
     74  NH2     -138.1520  -35.4270 -131.4710 N.pl3  39  ARG39       0.1354
     75  N       -133.8680  -32.5350 -131.7820 N.3    42  LEU42      -0.1245
     76  CA      -134.4610  -33.2060 -132.9630 C.3    42  LEU42       0.1561
     77  C       -135.3970  -32.2500 -133.7120 C.2    42  LEU42       0.2260
     78  O       -135.2880  -32.1260 -134.9240 O.2    42  LEU42      -0.2867
     79  CB      -135.2520  -34.4600 -132.5080 C.3    42  LEU42       0.0270
     80  CG      -135.3490  -35.6330 -133.5260 C.3    42  LEU42       0.0019
     81  CD1     -135.6990  -35.1080 -134.8910 C.3    42  LEU42       0.0001
     82  CD2     -134.0560  -36.4500 -133.6070 C.3    42  LEU42       0.0001
     83  N       -126.5230  -35.0270 -118.8690 N.3    82  HIS82      -0.1241
     84  CA      -127.6400  -35.8620 -118.4330 C.3    82  HIS82       0.1621
     85  C       -127.1090  -37.2320 -118.0380 C.2    82  HIS82       0.2264
     86  O       -127.4260  -37.7480 -116.9710 O.2    82  HIS82      -0.2867
     87  CB      -128.6560  -35.9970 -119.5800 C.3    82  HIS82       0.0745
     88  CG      -128.8220  -37.4160 -120.0400 C.ar   82  HIS82       0.0817
     89  ND1     -128.1170  -37.9200 -121.1280 N.ar   82  HIS82      -0.2268
     90  CD2     -129.5960  -38.4230 -119.5950 C.ar   82  HIS82       0.1154
     91  CE1     -128.4830  -39.1820 -121.2950 C.ar   82  HIS82       0.1986
     92  NE2     -129.3830  -39.5420 -120.3880 N.ar   82  HIS82      -0.2212
     93  N       -131.9200  -49.1310 -122.5250 N.3   129  PRO129     -0.2116
     94  CA      -132.0390  -47.7220 -122.9000 C.3   129  PRO129      0.1372
     95  C       -130.6710  -47.0640 -123.0080 C.2   129  PRO129      0.2244
     96  O       -130.5580  -45.9360 -123.4860 O.2   129  PRO129     -0.2868
     97  CB      -132.8480  -47.1130 -121.7700 C.3   129  PRO129      0.0268
     98  CG      -132.4350  -47.8870 -120.5710 C.3   129  PRO129      0.0207
     99  CD      -132.1990  -49.3140 -121.0680 C.3   129  PRO129      0.0892
    100  N       -129.5000  -45.2180 -126.3280 N.3   133  LEU133     -0.1245
    101  CA      -129.0650  -43.8180 -126.2700 C.3   133  LEU133      0.1561
    102  C       -127.6760  -43.6250 -126.8240 C.2   133  LEU133      0.2260
    103  O       -127.3610  -42.5850 -127.3760 O.2   133  LEU133     -0.2867
    104  CB      -129.2020  -43.2500 -124.8150 C.3   133  LEU133      0.0270
    105  CG      -128.0790  -43.5630 -123.7670 C.3   133  LEU133      0.0019
    106  CD1     -126.9670  -42.5230 -123.8260 C.3   133  LEU133      0.0001
    107  CD2     -128.6670  -43.5680 -122.3280 C.3   133  LEU133      0.0001
    108  N       -127.9510  -41.8280 -129.8550 N.3   136  PHE136     -0.1241
    109  CA      -128.5880  -40.5250 -129.8500 C.3   136  PHE136      0.1605
    110  C       -127.5870  -39.4170 -130.1660 C.2   136  PHE136      0.2264
    111  O       -127.9640  -38.3750 -130.6880 O.2   136  PHE136     -0.2867
    112  CB      -129.2630  -40.2620 -128.4840 C.3   136  PHE136      0.0534
    113  CG      -128.2680  -40.0780 -127.3410 C.ar  136  PHE136     -0.0203
    114  CD1     -126.9500  -40.4970 -127.4560 C.ar  136  PHE136     -0.0042
    115  CD2     -128.6990  -39.5020 -126.1400 C.ar  136  PHE136     -0.0042
    116  CE1     -126.0580  -40.3490 -126.3860 C.ar  136  PHE136     -0.0003
    117  CE2     -127.8040  -39.3480 -125.0710 C.ar  136  PHE136     -0.0003
    118  CZ      -126.4840  -39.7730 -125.1940 C.ar  136  PHE136     -0.0000
    119  N       -126.0230  -38.9890 -134.0720 N.3   139  TYR139     -0.1241
    120  CA      -126.8010  -38.1060 -134.9130 C.3   139  TYR139      0.1605
    121  C       -125.9540  -36.8760 -135.1680 C.2   139  TYR139      0.2264
    122  O       -125.8990  -36.3630 -136.2760 O.2   139  TYR139     -0.2867
    123  CB      -128.0870  -37.6670 -134.1600 C.3   139  TYR139      0.0534
    124  CG      -129.3110  -38.5680 -134.3790 C.ar  139  TYR139     -0.0201
    125  CD1     -129.7880  -38.8640 -135.6590 C.ar  139  TYR139     -0.0009
    126  CD2     -129.9790  -39.0860 -133.2650 C.ar  139  TYR139     -0.0009
    127  CE1     -130.9260  -39.6820 -135.8150 C.ar  139  TYR139      0.0417
    128  CE2     -131.1040  -39.8920 -133.4220 C.ar  139  TYR139      0.0417
    129  CZ      -131.5780  -40.1970 -134.6840 C.ar  139  TYR139      0.1957
    130  OH      -132.6930  -40.9960 -134.8020 O.3   139  TYR139     -0.2866
@<TRIPOS>BOND
     1   122   121    2
     2     1     2    1
     3   127   125   ar
     4   127   129   ar
     5   125   124   ar
     6   121   120    1
     7     6     5    1
     8     6     7    1
     9    78    77    2
    10   120   123    1
    11   120   119    1
    12    81    80    1
    13   130   129    1
    14     2     5    1
    15     2     3    1
    16   129   128   ar
    17     3     4    2
    18   124   123    1
    19   124   126   ar
    20    10    11    1
    21     9     7   ar
    22     7     8   ar
    23    77    76    1
    24    82    80    1
    25    80    79    1
    26   128   126   ar
    27    14    11    1
    28    11    12    1
    29    76    79    1
    30    76    75    1
    31    15    12   am
    32    15    16    1
    33    12    13    2
    34    19    16    1
    35    19    20    1
    36    74    72    1
    37    73    72    1
    38    22    20    1
    39    72    71    2
    40    16    17    1
    41    20    21    1
    42   111   110    2
    43   110   109    1
    44    71    70    1
    45    17    18    2
    46    67    66    2
    47   108   109    1
    48   109   112    1
    49    70    69    1
    50    23    24    1
    51    66    65    1
    52   112   113    1
    53    33    31   ar
    54    33    32   ar
    55    69    68    1
    56    31    29   ar
    57    24    25    1
    58    24    27    1
    59    32    30   ar
    60    65    68    1
    61    65    64    1
    62    29    28   ar
    63   114   113   ar
    64   114   116   ar
    65    58    57    2
    66    30    28   ar
    67   103   102    2
    68   113   115   ar
    69    28    27    1
    70    25    26    2
    71   102   101    1
    72    64    57   am
    73    57    56    1
    74   116   118   ar
    75   100   101    1
    76   101   104    1
    77   115   117   ar
    78   118   117   ar
    79    56    55    1
    80    56    59    1
    81   104   105    1
    82    60    59    1
    83    60    61    1
    84    40    39    1
    85    41    39    1
    86    34    35    1
    87   106   105    1
    88   105   107    1
    89    38    39    1
    90    38    35    1
    91    52    51    2
    92    96    95    2
    93    61    63   ar
    94    61    62   ar
    95    35    36    1
    96    95    94    1
    97    94    93    1
    98    94    97    1
    99    51    50    1
   100    93    99    1
   101    54    53    1
   102    97    98    1
   103    36    37    2
   104    50    53    1
   105    50    49    1
   106    91    89   ar
   107    91    92   ar
   108    89    88   ar
   109    47    48    1
   110    47    46    1
   111    99    98    1
   112    48    42    1
   113    92    90   ar
   114    45    44    2
   115    88    90   ar
   116    88    87    1
   117    46    43    1
   118    87    84    1
   119    42    43    1
   120    44    43    1
   121    83    84    1
   122    84    85    1
   123    85    86    2
