@<TRIPOS>MOLECULE
tmp/2lvzA00.pdb
 175 177 0 0 0
SMALL
GASTEIGER

@<TRIPOS>ATOM
      1  N        -24.5630   21.4010   42.8600 N.3     7  ARG7       -0.1241
      2  CA       -25.6690   22.3120   42.5620 C.3     7  ARG7        0.1606
      3  C        -26.0880   22.9770   43.8850 C.2     7  ARG7        0.2264
      4  O        -26.0540   24.2000   43.9580 O.2     7  ARG7       -0.2867
      5  CB       -26.8060   21.5500   41.8400 C.3     7  ARG7        0.0562
      6  CG       -27.9560   22.4800   41.4620 C.2     7  ARG7        0.0159
      7  CD       -27.5730   23.7270   40.6530 C.2     7  ARG7        0.1886
      8  NE       -28.6520   24.5660   40.1530 N.pl3   7  ARG7       -0.0578
      9  CZ       -29.4820   24.2630   39.1520 C.cat   7  ARG7        0.5393
     10  NH1      -29.1660   23.3040   38.3140 N.pl3   7  ARG7        0.1358
     11  NH2      -30.5430   24.9730   38.9260 N.pl3   7  ARG7        0.1358
     12  N        -23.4820   25.4730   45.1880 N.3    10  TRP10      -0.1227
     13  CA       -23.4240   26.5900   44.2330 C.3    10  TRP10       0.1737
     14  C        -24.6300   27.5120   44.4610 C.2    10  TRP10       0.2595
     15  O        -24.5360   28.7240   44.4370 O.2    10  TRP10      -0.2718
     16  CB       -23.1720   26.1800   42.8000 C.3    10  TRP10       0.0564
     17  CG       -23.2500   27.3420   41.8050 C.ar   10  TRP10       0.0003
     18  CD1      -24.0890   27.4300   40.7430 C.ar   10  TRP10       0.0946
     19  CD2      -22.3120   28.4610   41.6750 C.ar   10  TRP10       0.0152
     20  NE1      -23.7580   28.6050   40.0160 N.ar   10  TRP10      -0.2442
     21  CE2      -22.7140   29.3040   40.6080 C.ar   10  TRP10       0.0810
     22  CE3      -21.2370   28.9520   42.4400 C.ar   10  TRP10       0.0012
     23  CZ2      -22.1040   30.5080   40.2820 C.ar   10  TRP10       0.0191
     24  CZ3      -20.6130   30.1960   42.1280 C.ar   10  TRP10       0.0001
     25  CH2      -21.0720   30.9590   41.0500 C.ar   10  TRP10       0.0015
     26  N        -25.7910   26.9360   44.6880 N.am   11  PHE11      -0.1976
     27  CA       -26.9890   27.6310   45.0990 C.3    11  PHE11       0.1639
     28  C        -26.8730   28.4500   46.4060 C.2    11  PHE11       0.2290
     29  O        -27.2840   29.6420   46.5030 O.2    11  PHE11      -0.2864
     30  CB       -28.0840   26.5470   45.2010 C.3    11  PHE11       0.0560
     31  CG       -29.3750   27.1920   45.7000 C.ar   11  PHE11      -0.0200
     32  CD1      -29.9380   28.2510   44.9060 C.ar   11  PHE11      -0.0042
     33  CD2      -29.8460   26.9070   47.0000 C.ar   11  PHE11      -0.0042
     34  CE1      -30.9330   29.0160   45.5090 C.ar   11  PHE11      -0.0003
     35  CE2      -30.8550   27.6790   47.5430 C.ar   11  PHE11      -0.0003
     36  CZ       -31.4220   28.7710   46.8280 C.ar   11  PHE11      -0.0000
     37  N        -24.2850   31.6720   46.0070 N.3    14  GLN14      -0.1231
     38  CA       -24.8780   32.7130   45.2890 C.3    14  GLN14       0.1698
     39  C        -25.8460   33.4050   46.2310 C.2    14  GLN14       0.2592
     40  O        -26.0150   34.5970   46.0300 O.2    14  GLN14      -0.2718
     41  CB       -25.7010   32.2290   44.0650 C.3    14  GLN14       0.0381
     42  CG       -24.8050   31.7710   42.9350 C.3    14  GLN14       0.0905
     43  CD       -25.6090   31.2170   41.7490 C.2    14  GLN14       0.2608
     44  OE1      -25.6770   31.8200   40.6690 O.2    14  GLN14      -0.2717
     45  NE2      -26.3730   30.1450   42.0150 N.am   14  GLN14      -0.0878
     46  N        -26.6590   32.6190   47.0620 N.am   15  HIS15      -0.1976
     47  CA       -27.9270   33.1980   47.6400 C.3    15  HIS15       0.1656
     48  C        -28.1690   32.9810   49.1290 C.2    15  HIS15       0.2291
     49  O        -29.1650   33.5290   49.6540 O.2    15  HIS15      -0.2864
     50  CB       -29.1870   32.6660   46.8140 C.3    15  HIS15       0.0771
     51  CG       -29.1990   33.1390   45.3960 C.ar   15  HIS15       0.0820
     52  ND1      -29.4260   34.3380   44.8430 N.ar   15  HIS15      -0.2267
     53  CD2      -29.2230   32.2170   44.3860 C.ar   15  HIS15       0.1154
     54  CE1      -29.4980   34.2300   43.4830 C.ar   15  HIS15       0.1986
     55  NE2      -29.4590   32.9060   43.2060 N.ar   15  HIS15      -0.2212
     56  N        -17.1210   36.2470   37.8070 N.3    33  TYR33      -0.1227
     57  CA       -16.9920   34.8350   37.3780 C.3    33  TYR33       0.1736
     58  C        -17.7060   34.5050   36.0110 C.2    33  TYR33       0.2595
     59  O        -17.2980   33.6080   35.2510 O.2    33  TYR33      -0.2718
     60  CB       -17.5020   33.9620   38.5010 C.3    33  TYR33       0.0548
     61  CG       -17.8210   32.5310   38.1150 C.ar   33  TYR33      -0.0200
     62  CD1      -16.7290   31.6440   37.7950 C.ar   33  TYR33      -0.0009
     63  CD2      -19.1760   32.0220   38.1540 C.ar   33  TYR33      -0.0009
     64  CE1      -17.0230   30.2860   37.5730 C.ar   33  TYR33       0.0417
     65  CE2      -19.3730   30.6600   37.8860 C.ar   33  TYR33       0.0417
     66  CZ       -18.3680   29.7580   37.5240 C.ar   33  TYR33       0.1957
     67  OH       -18.6650   28.4640   37.1690 O.3    33  TYR33      -0.2866
     68  N        -18.6480   35.3610   35.6450 N.am   34  ARG34      -0.1966
     69  CA       -19.4770   35.3390   34.4210 C.3    34  ARG34       0.1729
     70  C        -19.1280   36.4040   33.4480 C.2    34  ARG34       0.2616
     71  O        -18.5930   37.4180   33.8730 O.2    34  ARG34      -0.2715
     72  CB       -20.9800   35.4070   34.7520 C.3    34  ARG34       0.0348
     73  CG       -21.5790   34.1820   35.3980 C.3    34  ARG34       0.0492
     74  CD       -23.0270   34.4680   35.8010 C.3    34  ARG34       0.2205
     75  NE       -23.6150   33.2560   36.4150 N.pl3  34  ARG34      -0.0865
     76  CZ       -24.3840   33.2340   37.4680 C.cat  34  ARG34       0.5346
     77  NH1      -25.0370   34.2540   38.0220 N.pl3  34  ARG34       0.1354
     78  NH2      -24.4580   32.1440   38.1360 N.pl3  34  ARG34       0.1354
     79  N        -19.4590   36.1300   32.1720 N.am   35  TRP35      -0.1974
     80  CA       -18.9090   36.9490   31.0990 C.3    35  TRP35       0.1640
     81  C        -19.1960   38.4810   31.0650 C.2    35  TRP35       0.2290
     82  O        -18.4790   39.3210   30.4490 O.2    35  TRP35      -0.2864
     83  CB       -19.3570   36.2390   29.7800 C.3    35  TRP35       0.0576
     84  CG       -20.6460   36.6570   29.1720 C.ar   35  TRP35       0.0006
     85  CD1      -21.8650   36.7940   29.8260 C.ar   35  TRP35       0.0946
     86  CD2      -20.8490   37.0220   27.7640 C.ar   35  TRP35       0.0152
     87  NE1      -22.8230   37.1550   28.8760 N.ar   35  TRP35      -0.2442
     88  CE2      -22.2900   37.2910   27.6050 C.ar   35  TRP35       0.0810
     89  CE3      -20.0860   37.1690   26.6320 C.ar   35  TRP35       0.0012
     90  CZ2      -22.8260   37.7510   26.3990 C.ar   35  TRP35       0.0191
     91  CZ3      -20.5910   37.5540   25.4080 C.ar   35  TRP35       0.0001
     92  CH2      -21.9520   37.8460   25.2790 C.ar   35  TRP35       0.0015
     93  N        -21.2240   41.6180   34.1120 N.3    37  CYS37      -0.1221
     94  CA       -21.9710   42.0280   35.2380 C.3    37  CYS37       0.1808
     95  C        -23.5330   41.8190   35.1850 C.2    37  CYS37       0.2601
     96  O        -24.2120   42.3680   34.3310 O.2    37  CYS37      -0.2717
     97  CB       -21.6780   43.5090   35.5880 C.3    37  CYS37       0.0970
     98  SG       -19.9760   43.8660   35.9490 S.3    37  CYS37      -0.0800
     99  N        -24.1060   41.0320   36.1450 N.am   38  LYS38      -0.1965
    100  CA       -25.5530   41.0930   36.3990 C.3    38  LYS38       0.1728
    101  C        -26.0250   42.3150   37.2290 C.2    38  LYS38       0.2616
    102  O        -25.4360   42.7030   38.2220 O.2    38  LYS38      -0.2715
    103  CB       -25.9320   39.7350   37.0600 C.3    38  LYS38       0.0311
    104  CG       -27.4870   39.5320   37.2990 C.3    38  LYS38       0.0038
    105  CD       -27.8550   38.3740   38.3100 C.3    38  LYS38       0.0206
    106  CE       -29.3980   38.2650   38.2310 C.3    38  LYS38       0.1093
    107  NZ       -30.1030   38.2030   39.5020 N.3    38  LYS38      -0.1314
    108  N        -27.0500   42.9130   36.7500 N.am   39  ASN39      -0.1958
    109  CA       -27.6380   44.1030   37.2370 C.3    39  ASN39       0.1819
    110  C        -28.0810   44.0000   38.7530 C.2    39  ASN39       0.2621
    111  O        -27.8190   44.9200   39.5520 O.2    39  ASN39      -0.2715
    112  CB       -28.7640   44.2840   36.2160 C.3    39  ASN39       0.1195
    113  CG       -29.2130   45.7460   36.1590 C.2    39  ASN39       0.2630
    114  OD1      -29.5660   46.3540   37.2020 O.2    39  ASN39      -0.2716
    115  ND2      -29.2960   46.3210   35.0140 N.am   39  ASN39      -0.0877
    116  N        -28.6950   42.8860   39.2430 N.am   40  GLN40      -0.1963
    117  CA       -29.4460   42.8800   40.5300 C.3    40  GLN40       0.1733
    118  C        -29.0430   41.5500   41.2170 C.2    40  GLN40       0.2616
    119  O        -28.8910   40.5410   40.5000 O.2    40  GLN40      -0.2715
    120  CB       -30.9290   43.0350   40.2750 C.3    40  GLN40       0.0408
    121  CG       -31.2930   44.4190   39.6160 C.3    40  GLN40       0.0908
    122  CD       -31.0600   45.6340   40.4610 C.2    40  GLN40       0.2608
    123  OE1      -31.4600   45.7100   41.6290 O.2    40  GLN40      -0.2717
    124  NE2      -30.3990   46.5750   39.9260 N.am   40  GLN40      -0.0878
    125  N        -28.8370   41.4690   42.5310 N.am   41  ASN41      -0.1972
    126  CA       -28.8610   40.1210   43.1860 C.3    41  ASN41       0.1688
    127  C        -29.3570   40.0630   44.6430 C.2    41  ASN41       0.2292
    128  O        -29.2790   41.0960   45.3430 O.2    41  ASN41      -0.2864
    129  CB       -27.5250   39.3080   43.0380 C.3    41  ASN41       0.1181
    130  CG       -27.5890   37.7580   43.1130 C.2    41  ASN41       0.2629
    131  OD1      -28.0430   37.1520   42.1670 O.2    41  ASN41      -0.2716
    132  ND2      -26.9590   37.1210   44.0750 N.am   41  ASN41      -0.0877
    133  N        -41.9890   29.6930   36.5400 N.3    64  HIS64      -0.1245
    134  CA       -41.1090   29.1550   35.5040 C.3    64  HIS64       0.1576
    135  C        -40.6300   27.8360   36.0600 C.2    64  HIS64       0.2261
    136  O        -39.4740   27.6810   36.4980 O.2    64  HIS64      -0.2867
    137  CB       -39.9630   30.1890   35.1290 C.3    64  HIS64       0.0459
    138  CG       -40.4790   31.5560   34.6190 C.3    64  HIS64       0.0936
    139  ND1      -39.9470   32.8010   34.9850 N.3    64  HIS64      -0.1997
    140  CD2      -41.5690   31.7770   33.8250 C.3    64  HIS64       0.1077
    141  CE1      -40.5820   33.7330   34.2390 C.3    64  HIS64       0.1782
    142  NE2      -41.6660   33.1570   33.6450 N.3    64  HIS64      -0.1983
    143  N        -31.9280   24.3460   45.4010 N.3   127  VAL127     -0.1231
    144  CA       -31.1790   24.4100   44.0910 C.3   127  VAL127      0.1692
    145  C        -31.5670   25.5940   43.2210 C.2   127  VAL127      0.2592
    146  O        -30.8440   25.8120   42.2330 O.2   127  VAL127     -0.2718
    147  CB       -31.2190   23.1150   43.1950 C.3   127  VAL127      0.0266
    148  CG1      -30.6230   21.7960   43.8160 C.3   127  VAL127      0.0020
    149  CG2      -32.6260   22.8240   42.5560 C.3   127  VAL127      0.0020
    150  N        -32.6070   26.4230   43.5350 N.am  128  HIS128     -0.1962
    151  CA       -32.8700   27.6610   42.7980 C.3   128  HIS128      0.1787
    152  C        -33.7180   28.6080   43.6240 C.2   128  HIS128      0.2620
    153  O        -34.3660   28.2520   44.6020 O.2   128  HIS128     -0.2715
    154  CB       -33.6250   27.2540   41.4310 C.3   128  HIS128      0.0785
    155  CG       -33.5980   28.2770   40.3320 C.ar  128  HIS128      0.0821
    156  ND1      -32.5500   28.6980   39.6100 N.ar  128  HIS128     -0.2267
    157  CD2      -34.6380   28.9080   39.7570 C.ar  128  HIS128      0.1154
    158  CE1      -32.8450   29.5340   38.6870 C.ar  128  HIS128      0.1986
    159  NE2      -34.1640   29.7850   38.7970 N.ar  128  HIS128     -0.2212
    160  N        -33.8830   29.8290   43.1120 N.am  129  LEU129     -0.1963
    161  CA       -34.5710   30.9850   43.7220 C.3   129  LEU129      0.1728
    162  C        -35.5990   31.7170   42.7630 C.2   129  LEU129      0.2616
    163  O        -35.3160   31.9560   41.5850 O.2   129  LEU129     -0.2715
    164  CB       -33.5470   32.0000   44.2580 C.3   129  LEU129      0.0311
    165  CG       -34.1530   33.3390   44.7790 C.3   129  LEU129      0.0022
    166  CD1      -35.1150   33.1990   46.0290 C.3   129  LEU129      0.0001
    167  CD2      -32.9480   34.1940   45.2450 C.3   129  LEU129      0.0001
    168  N        -36.8230   31.9900   43.2080 N.am  130  ASP130     -0.1971
    169  CA       -37.8750   32.6420   42.4140 C.3   130  ASP130      0.1709
    170  C        -38.2100   34.0410   42.8770 C.2   130  ASP130      0.2293
    171  O        -38.2390   34.9100   42.0250 O.2   130  ASP130     -0.2864
    172  CB       -39.0610   31.7850   42.4160 C.3   130  ASP130      0.1436
    173  CG       -40.0900   32.3340   41.3680 C.2   130  ASP130      0.3671
    174  OD1      -39.6840   32.4920   40.1840 O.co2 130  ASP130     -0.2456
    175  OD2      -41.1950   32.7000   41.7030 O.co2 130  ASP130     -0.2456
@<TRIPOS>BOND
     1    92    91   ar
     2    92    90   ar
     3    91    89   ar
     4    90    88   ar
     5    89    86   ar
     6    88    86   ar
     7    88    87   ar
     8    86    84   ar
     9    87    85   ar
    10    84    83    1
    11    84    85   ar
    12    83    80    1
    13    82    81    2
    14    81    80    1
    15    80    79    1
    16    79    70   am
    17    70    71    2
    18    70    69    1
    19   142   140    1
    20   142   141    1
    21   140   138    1
    22    93    94    1
    23   141   139    1
    24    96    95    2
    25    69    72    1
    26    69    68    1
    27   138   139    1
    28   138   137    1
    29    72    73    1
    30   115   113   am
    31   137   134    1
    32    95    94    1
    33    95    99   am
    34    94    97    1
    35    59    58    2
    36    73    74    1
    37   134   135    1
    38   134   133    1
    39    97    98    1
    40    68    58   am
    41    74    75    1
    42    58    57    1
    43   135   136    2
    44    99   100    1
    45   113   112    1
    46   113   114    2
    47   112   109    1
    48   100   103    1
    49   100   101    1
    50    75    76    2
    51   108   101   am
    52   108   109    1
    53   103   104    1
    54    67    66    1
    55   101   102    2
    56   109   110    1
    57   104   105    1
    58    57    56    1
    59    57    60    1
    60    76    77    1
    61    76    78    1
    62    66    64   ar
    63    66    65   ar
    64    64    62   ar
    65    62    61   ar
    66    65    63   ar
    67    61    63   ar
    68    61    60    1
    69   106   105    1
    70   106   107    1
    71    10     9    1
    72   158   159   ar
    73   158   156   ar
    74   110   116   am
    75   110   111    2
    76   159   157   ar
    77    11     9    1
    78     9     8    2
    79   116   117    1
    80   156   155   ar
    81   121   120    1
    82   121   122    1
    83   157   155   ar
    84   124   122   am
    85    20    21   ar
    86    20    18   ar
    87     8     7    1
    88   174   173   ar
    89   120   117    1
    90    23    21   ar
    91    23    25   ar
    92   155   154    1
    93   122   123    2
    94   119   118    2
    95   117   118    1
    96    21    19   ar
    97     7     6    2
    98    44    43    2
    99    18    17   ar
   100    25    24   ar
   101   118   125   am
   102   173   175   ar
   103   173   172    1
   104   154   151    1
   105     6     5    1
   106   163   162    2
   107    19    17   ar
   108    19    22   ar
   109    43    45   am
   110    43    42    1
   111    17    16    1
   112     5     2    1
   113   171   170    2
   114    24    22   ar
   115   131   130    2
   116   146   145    2
   117   169   172    1
   118   169   170    1
   119   169   168    1
   120   125   126    1
   121   149   147    1
   122     2     1    1
   123     2     3    1
   124   162   168   am
   125   162   161    1
   126   151   150    1
   127   151   152    1
   128    16    13    1
   129    42    41    1
   130   129   130    1
   131   129   126    1
   132   160   152   am
   133   160   161    1
   134   130   132   am
   135   126   127    1
   136   147   148    1
   137   147   144    1
   138    55    54   ar
   139    55    53   ar
   140   145   150   am
   141   145   144    1
   142    54    52   ar
   143   152   153    2
   144   161   164    1
   145     3     4    2
   146    41    38    1
   147   144   143    1
   148    13    14    1
   149    13    12    1
   150   164   165    1
   151    53    51   ar
   152    15    14    2
   153    14    26   am
   154   127   128    2
   155    26    27    1
   156   165   167    1
   157   165   166    1
   158    52    51   ar
   159    32    34   ar
   160    32    31   ar
   161    27    30    1
   162    27    28    1
   163    30    31    1
   164    38    37    1
   165    38    39    1
   166    51    50    1
   167    34    36   ar
   168    31    33   ar
   169    40    39    2
   170    39    46   am
   171    28    29    2
   172    50    47    1
   173    36    35   ar
   174    33    35   ar
   175    46    47    1
   176    47    48    1
   177    48    49    2
