@<TRIPOS>MOLECULE
tmp/2lyaA00.pdb
 78 72 0 0 0
SMALL
GASTEIGER

@<TRIPOS>ATOM
      1  N         -2.5380    5.4010  -21.1640 N.3    40  LEU40      -0.1245
      2  CA        -1.7760    6.5130  -20.6070 C.3    40  LEU40       0.1561
      3  C         -0.3200    6.1180  -20.3850 C.2    40  LEU40       0.2260
      4  O          0.5960    6.8210  -20.8100 O.2    40  LEU40      -0.2867
      5  CB        -2.3990    6.9730  -19.2870 C.3    40  LEU40       0.0270
      6  CG        -3.3620    8.1580  -19.3760 C.3    40  LEU40       0.0019
      7  CD1       -3.9500    8.4710  -18.0100 C.3    40  LEU40       0.0001
      8  CD2       -2.6540    9.3780  -19.9470 C.3    40  LEU40       0.0001
      9  N          1.9490    6.4310  -23.1710 N.3    43  PHE43      -0.1227
     10  CA         2.3990    7.7640  -23.5550 C.3    43  PHE43       0.1736
     11  C          3.3280    8.3510  -22.4960 C.2    43  PHE43       0.2595
     12  O          3.4140    9.5680  -22.3360 O.2    43  PHE43      -0.2718
     13  CB         1.1990    8.6900  -23.7660 C.3    43  PHE43       0.0547
     14  CG         0.2640    8.2230  -24.8450 C.ar   43  PHE43      -0.0202
     15  CD1        0.7330    7.9640  -26.1230 C.ar   43  PHE43      -0.0042
     16  CD2       -1.0840    8.0430  -24.5810 C.ar   43  PHE43      -0.0042
     17  CE1       -0.1250    7.5340  -27.1170 C.ar   43  PHE43      -0.0003
     18  CE2       -1.9470    7.6120  -25.5720 C.ar   43  PHE43      -0.0003
     19  CZ        -1.4670    7.3590  -26.8420 C.ar   43  PHE43      -0.0000
     20  N          4.0200    7.4750  -21.7750 N.am   44  ALA44      -0.1966
     21  CA         4.9440    7.9050  -20.7320 C.3    44  ALA44       0.1728
     22  C          4.2050    8.6170  -19.6040 C.2    44  ALA44       0.2616
     23  O          4.8000    9.3810  -18.8440 O.2    44  ALA44      -0.2715
     24  CB         6.0170    8.8100  -21.3180 C.3    44  ALA44       0.0334
     25  N          2.9040    8.3630  -19.5020 N.am   45  VAL45      -0.1977
     26  CA         2.0840    8.9800  -18.4660 C.3    45  VAL45       0.1596
     27  C          1.4850    7.9280  -17.5400 C.2    45  VAL45       0.2287
     28  O          0.6680    7.1090  -17.9600 O.2    45  VAL45      -0.2864
     29  CB         0.9460    9.8190  -19.0770 C.3    45  VAL45       0.0276
     30  CG1        0.0790   10.4220  -17.9820 C.3    45  VAL45       0.0022
     31  CG2        1.5110   10.9060  -19.9800 C.3    45  VAL45       0.0022
     32  N         -2.8620   16.0110  -18.7190 N.3    59  ILE59      -0.1245
     33  CA        -3.1050   15.0400  -19.7780 C.3    59  ILE59       0.1561
     34  C         -3.8960   15.6620  -20.9240 C.2    59  ILE59       0.2260
     35  O         -3.6550   15.3630  -22.0940 O.2    59  ILE59      -0.2867
     36  CB        -3.8690   13.8110  -19.2510 C.3    59  ILE59       0.0252
     37  CG1       -3.0880   13.1460  -18.1150 C.3    59  ILE59       0.0019
     38  CG2       -4.1220   12.8200  -20.3770 C.3    59  ILE59       0.0019
     39  CD1       -3.9250   12.2110  -17.2720 C.3    59  ILE59       0.0001
     40  N         -1.8160   17.8850  -23.4550 N.3    62  GLN62      -0.1231
     41  CA        -1.0780   17.2170  -24.5200 C.3    62  GLN62       0.1698
     42  C         -2.0220   16.7410  -25.6200 C.2    62  GLN62       0.2592
     43  O         -1.6340   16.6390  -26.7840 O.2    62  GLN62      -0.2718
     44  CB        -0.2910   16.0320  -23.9590 C.3    62  GLN62       0.0381
     45  CG         1.1790   16.3370  -23.7200 C.3    62  GLN62       0.0905
     46  CD         1.5530   16.2930  -22.2510 C.2    62  GLN62       0.2608
     47  OE1        1.9190   17.3090  -21.6610 O.2    62  GLN62      -0.2717
     48  NE2        1.4620   15.1110  -21.6520 N.am   62  GLN62      -0.0878
     49  N         -3.2620   16.4490  -25.2430 N.am   63  LEU63      -0.1980
     50  CA        -4.2620   15.9830  -26.1970 C.3    63  LEU63       0.1596
     51  C         -4.9310   17.1580  -26.9030 C.2    63  LEU63       0.2287
     52  O         -5.4210   17.0230  -28.0240 O.2    63  LEU63      -0.2864
     53  CB        -5.3160   15.1330  -25.4870 C.3    63  LEU63       0.0297
     54  CG        -4.8550   13.7590  -25.0010 C.3    63  LEU63       0.0022
     55  CD1       -5.9780   13.0490  -24.2610 C.3    63  LEU63       0.0001
     56  CD2       -4.3670   12.9150  -26.1700 C.3    63  LEU63       0.0001
     57  N         -3.1860   17.9060  -29.8920 N.3    66  SER66      -0.1217
     58  CA        -3.1560   16.6600  -30.6490 C.3    66  SER66       0.1889
     59  C         -4.4930   16.4120  -31.3420 C.2    66  SER66       0.2288
     60  O         -4.5570   15.7380  -32.3710 O.2    66  SER66      -0.2866
     61  CB        -2.8210   15.4860  -29.7260 C.3    66  SER66       0.2089
     62  OG        -1.5230   15.6250  -29.1760 O.3    66  SER66      -0.2183
     63  N         -6.9640    8.8290  -29.7690 N.3    74  LEU74      -0.1245
     64  CA        -6.6770   10.1400  -29.1970 C.3    74  LEU74       0.1561
     65  C         -7.9660   10.8630  -28.8190 C.2    74  LEU74       0.2260
     66  O         -8.0120   11.5950  -27.8300 O.2    74  LEU74      -0.2867
     67  CB        -5.8760   10.9860  -30.1870 C.3    74  LEU74       0.0270
     68  CG        -4.9220   12.0130  -29.5750 C.3    74  LEU74       0.0019
     69  CD1       -3.5000   11.7740  -30.0570 C.3    74  LEU74       0.0001
     70  CD2       -5.3720   13.4270  -29.9140 C.3    74  LEU74       0.0001
     71  N         -9.7620    9.3320  -25.6960 N.3    77  LEU77      -0.1245
     72  CA        -9.0240    9.7400  -24.5050 C.3    77  LEU77       0.1561
     73  C         -9.5190   11.0900  -23.9950 C.2    77  LEU77       0.2260
     74  O         -9.9460   11.2120  -22.8460 O.2    77  LEU77      -0.2867
     75  CB        -7.5270    9.8150  -24.8090 C.3    77  LEU77       0.0270
     76  CG        -6.6770    8.6580  -24.2830 C.3    77  LEU77       0.0019
     77  CD1       -6.8230    8.5310  -22.7750 C.3    77  LEU77       0.0001
     78  CD2       -7.0640    7.3560  -24.9700 C.3    77  LEU77       0.0001
@<TRIPOS>BOND
     1    60    59    2
     2    59    58    1
     3    58    57    1
     4    58    61    1
     5    67    68    1
     6    67    64    1
     7    69    68    1
     8    70    68    1
     9    63    64    1
    10    61    62    1
    11    64    65    1
    12    65    66    2
    13    52    51    2
    14    17    19   ar
    15    17    15   ar
    16    51    50    1
    17    19    18   ar
    18    43    42    2
    19    50    53    1
    20    50    49    1
    21    56    54    1
    22    15    14   ar
    23    71    72    1
    24    42    49   am
    25    42    41    1
    26    18    16   ar
    27    53    54    1
    28    54    55    1
    29    78    76    1
    30    14    16   ar
    31    14    13    1
    32    75    72    1
    33    75    76    1
    34    41    44    1
    35    41    40    1
    36    72    73    1
    37    76    77    1
    38    73    74    2
    39    44    45    1
    40    13    10    1
    41    45    46    1
    42    10     9    1
    43    10    11    1
    44    11    12    2
    45    11    20   am
    46    46    47    2
    47    46    48   am
    48    35    34    2
    49    20    21    1
    50    24    21    1
    51     1     2    1
    52    34    33    1
    53     4     3    2
    54    21    22    1
    55     2     3    1
    56     2     5    1
    57    38    36    1
    58    31    29    1
    59     8     6    1
    60    33    36    1
    61    33    32    1
    62    22    25   am
    63    22    23    2
    64    25    26    1
    65     6     5    1
    66     6     7    1
    67    36    37    1
    68    29    26    1
    69    29    30    1
    70    26    27    1
    71    37    39    1
    72    28    27    2
