@<TRIPOS>MOLECULE
tmp/2lybA00.pdb
 91 83 0 0 0
SMALL
GASTEIGER

@<TRIPOS>ATOM
      1  N          1.0540  -16.7050   -3.9700 N.3    40  LEU40      -0.1245
      2  CA         1.7610  -16.3680   -2.7400 C.3    40  LEU40       0.1561
      3  C          0.7870  -15.9020   -1.6620 C.2    40  LEU40       0.2260
      4  O          0.7560  -16.4520   -0.5620 O.2    40  LEU40      -0.2867
      5  CB         2.8020  -15.2790   -3.0080 C.3    40  LEU40       0.0270
      6  CG         4.2300  -15.7630   -3.2590 C.3    40  LEU40       0.0019
      7  CD1        5.1470  -14.5870   -3.5600 C.3    40  LEU40       0.0001
      8  CD2        4.7450  -16.5500   -2.0630 C.3    40  LEU40       0.0001
      9  N         -2.0840  -16.4920   -1.3360 N.3    42  ARG42      -0.1231
     10  CA        -2.9400  -17.6100   -0.9600 C.3    42  ARG42       0.1694
     11  C         -2.3340  -18.3930    0.2010 C.2    42  ARG42       0.2592
     12  O         -3.0520  -18.9920    1.0020 O.2    42  ARG42      -0.2718
     13  CB        -3.1570  -18.5380   -2.1560 C.3    42  ARG42       0.0321
     14  CG        -4.4940  -19.2610   -2.1320 C.3    42  ARG42       0.0489
     15  CD        -4.3170  -20.7660   -2.2540 C.3    42  ARG42       0.2205
     16  NE        -5.5800  -21.4810   -2.0960 N.pl3  42  ARG42      -0.0865
     17  CZ        -5.6690  -22.8020   -1.9910 C.cat  42  ARG42       0.5346
     18  NH1       -4.5730  -23.5480   -2.0270 N.pl3  42  ARG42       0.1354
     19  NH2       -6.8550  -23.3800   -1.8490 N.pl3  42  ARG42       0.1354
     20  N         -1.0080  -18.3830    0.2870 N.am   43  PHE43      -0.1976
     21  CA        -0.3050  -19.0920    1.3490 C.3    43  PHE43       0.1639
     22  C          0.0270  -18.1520    2.5040 C.2    43  PHE43       0.2290
     23  O          1.0030  -18.3590    3.2250 O.2    43  PHE43      -0.2864
     24  CB         0.9780  -19.7250    0.8060 C.3    43  PHE43       0.0560
     25  CG         0.7310  -20.8100   -0.2020 C.ar   43  PHE43      -0.0200
     26  CD1        0.0600  -21.9680    0.1570 C.ar   43  PHE43      -0.0042
     27  CD2        1.1710  -20.6730   -1.5090 C.ar   43  PHE43      -0.0042
     28  CE1       -0.1690  -22.9690   -0.7690 C.ar   43  PHE43      -0.0003
     29  CE2        0.9450  -21.6700   -2.4390 C.ar   43  PHE43      -0.0003
     30  CZ         0.2750  -22.8200   -2.0680 C.ar   43  PHE43      -0.0000
     31  N          1.2180  -15.3740    2.3150 N.3    45  VAL45      -0.1245
     32  CA         2.4640  -14.6850    1.9990 C.3    45  VAL45       0.1561
     33  C          2.2310  -13.5600    0.9970 C.2    45  VAL45       0.2260
     34  O          1.8590  -13.8040   -0.1500 O.2    45  VAL45      -0.2867
     35  CB         3.5140  -15.6570    1.4290 C.3    45  VAL45       0.0252
     36  CG1        4.7910  -14.9130    1.0700 C.3    45  VAL45       0.0019
     37  CG2        3.7990  -16.7740    2.4210 C.3    45  VAL45       0.0019
     38  N         10.6090  -17.5790    1.3430 N.3    59  ILE59      -0.1245
     39  CA         9.6310  -18.3100    0.5490 C.3    59  ILE59       0.1561
     40  C         10.1840  -19.6580    0.0990 C.2    59  ILE59       0.2260
     41  O          9.4620  -20.6560    0.0580 O.2    59  ILE59      -0.2867
     42  CB         9.1980  -17.5070   -0.6920 C.3    59  ILE59       0.0252
     43  CG1        8.6070  -16.1590   -0.2730 C.3    59  ILE59       0.0019
     44  CG2        8.1930  -18.3000   -1.5130 C.3    59  ILE59       0.0019
     45  CD1        8.5570  -15.1460   -1.3950 C.3    59  ILE59       0.0001
     46  N         10.2810  -22.4010    3.0150 N.3    62  GLN62      -0.1231
     47  CA         9.0440  -23.1120    3.3160 C.3    62  GLN62       0.1698
     48  C          8.6880  -24.0830    2.1950 C.2    62  GLN62       0.2592
     49  O          8.0530  -25.1120    2.4290 O.2    62  GLN62      -0.2718
     50  CB         7.9000  -22.1200    3.5300 C.3    62  GLN62       0.0381
     51  CG         7.5600  -21.8910    4.9940 C.3    62  GLN62       0.0905
     52  CD         6.9920  -20.5090    5.2520 C.2    62  GLN62       0.2608
     53  OE1        5.7950  -20.2750    5.0790 O.2    62  GLN62      -0.2717
     54  NE2        7.8490  -19.5840    5.6680 N.am   62  GLN62      -0.0878
     55  N          9.1000  -23.7490    0.9770 N.am   63  LEU63      -0.1980
     56  CA         8.8240  -24.5910   -0.1820 C.3    63  LEU63       0.1596
     57  C          9.8590  -25.7050   -0.3050 C.2    63  LEU63       0.2287
     58  O          9.5820  -26.7620   -0.8700 O.2    63  LEU63      -0.2864
     59  CB         8.8110  -23.7480   -1.4580 C.3    63  LEU63       0.0297
     60  CG         7.5920  -22.8460   -1.6540 C.3    63  LEU63       0.0022
     61  CD1        7.8460  -21.8410   -2.7680 C.3    63  LEU63       0.0001
     62  CD2        6.3550  -23.6780   -1.9560 C.3    63  LEU63       0.0001
     63  N          8.7240  -28.5860    1.4120 N.3    66  SER66      -0.1217
     64  CA         7.4140  -28.8870    0.8450 C.3    66  SER66       0.1889
     65  C          7.5540  -29.5890   -0.5020 C.2    66  SER66       0.2288
     66  O          6.6720  -30.3430   -0.9170 O.2    66  SER66      -0.2866
     67  CB         6.5980  -27.6030    0.6820 C.3    66  SER66       0.2089
     68  OG         6.3370  -27.0020    1.9380 O.3    66  SER66      -0.2183
     69  N          6.5230  -33.1760   -0.8050 N.3    69  THR69      -0.1218
     70  CA         5.1140  -33.5090   -0.9750 C.3    69  THR69       0.1862
     71  C          4.3490  -32.3550   -1.6140 C.2    69  THR69       0.2287
     72  O          3.2440  -32.0200   -1.1910 O.2    69  THR69      -0.2866
     73  CB         4.4540  -33.8640    0.3710 C.3    69  THR69       0.1770
     74  OG1        5.4000  -34.5210    1.2220 O.3    69  THR69      -0.2211
     75  CG2        3.2440  -34.7620    0.1610 C.3    69  THR69       0.0375
     76  N          3.2550  -26.1520   -6.3780 N.3    74  LEU74      -0.1245
     77  CA         4.4360  -25.9460   -5.5470 C.3    74  LEU74       0.1561
     78  C          5.7010  -25.9120   -6.3980 C.2    74  LEU74       0.2260
     79  O          6.6490  -25.1890   -6.0900 O.2    74  LEU74      -0.2867
     80  CB         4.5430  -27.0530   -4.4970 C.3    74  LEU74       0.0270
     81  CG         5.0760  -26.6300   -3.1270 C.3    74  LEU74       0.0019
     82  CD1        4.3830  -27.4090   -2.0210 C.3    74  LEU74       0.0001
     83  CD2        6.5830  -26.8260   -3.0570 C.3    74  LEU74       0.0001
     84  N          6.2090  -22.6840   -8.2470 N.3    77  LEU77      -0.1245
     85  CA         6.5250  -21.6970   -7.2210 C.3    77  LEU77       0.1561
     86  C          8.0110  -21.7220   -6.8800 C.2    77  LEU77       0.2260
     87  O          8.7400  -20.7720   -7.1650 O.2    77  LEU77      -0.2867
     88  CB         5.6970  -21.9590   -5.9620 C.3    77  LEU77       0.0270
     89  CG         4.6270  -20.9170   -5.6330 C.3    77  LEU77       0.0019
     90  CD1        3.6560  -20.7640   -6.7940 C.3    77  LEU77       0.0001
     91  CD2        3.8840  -21.2980   -4.3610 C.3    77  LEU77       0.0001
@<TRIPOS>BOND
     1    84    85    1
     2    85    86    1
     3    85    88    1
     4    87    86    2
     5    90    89    1
     6    78    79    2
     7    78    77    1
     8    76    77    1
     9    88    89    1
    10    89    91    1
    11    77    80    1
    12    80    81    1
    13     1     2    1
    14     7     6    1
    15     6     5    1
    16     6     8    1
    17    81    83    1
    18    81    82    1
    19     5     2    1
    20    61    60    1
    21     2     3    1
    22    29    30   ar
    23    29    27   ar
    24    15    14    1
    25    15    16    1
    26    13    14    1
    27    13    10    1
    28    16    17    2
    29    30    28   ar
    30    18    17    1
    31    17    19    1
    32    62    60    1
    33     3     4    2
    34    60    59    1
    35    71    72    2
    36    71    70    1
    37    44    42    1
    38    27    25   ar
    39    59    56    1
    40    45    43    1
    41     9    10    1
    42    70    69    1
    43    70    73    1
    44    10    11    1
    45    66    65    2
    46    58    57    2
    47    28    26   ar
    48    42    43    1
    49    42    39    1
    50    65    64    1
    51    57    56    1
    52    25    26   ar
    53    25    24    1
    54    56    55    1
    55    34    33    2
    56    41    40    2
    57    40    39    1
    58    75    73    1
    59    11    20   am
    60    11    12    2
    61    20    21    1
    62    73    74    1
    63    39    38    1
    64    67    64    1
    65    67    68    1
    66    24    21    1
    67    64    63    1
    68    55    48   am
    69    33    32    1
    70    36    35    1
    71    21    22    1
    72    35    32    1
    73    35    37    1
    74    32    31    1
    75    48    49    2
    76    48    47    1
    77    22    23    2
    78    46    47    1
    79    47    50    1
    80    50    51    1
    81    51    52    1
    82    53    52    2
    83    52    54   am
