@<TRIPOS>MOLECULE
tmp/2lzgA00.pdb
 153 146 0 0 0
SMALL
GASTEIGER

@<TRIPOS>ATOM
      1  N          7.3280   -4.1290    6.9710 N.3    14  VAL14      -0.1231
      2  CA         7.7390   -2.7210    6.8220 C.3    14  VAL14       0.1692
      3  C          7.0800   -1.8580    7.9230 C.2    14  VAL14       0.2593
      4  O          5.8520   -1.8580    8.0620 O.2    14  VAL14      -0.2718
      5  CB         7.3750   -2.2070    5.3820 C.3    14  VAL14       0.0266
      6  CG1        7.3440   -0.6770    5.2790 C.3    14  VAL14       0.0020
      7  CG2        8.3460   -2.7870    4.3440 C.3    14  VAL14       0.0020
      8  N          7.9120   -1.1310    8.7060 N.am   15  THR15      -0.1939
      9  CA         7.4230   -0.2690    9.8070 C.3    15  THR15       0.2028
     10  C          8.4700    0.8000   10.2030 C.2    15  THR15       0.2642
     11  O          9.6760    0.5500   10.1170 O.2    15  THR15      -0.2714
     12  CB         7.0330   -1.1360   11.0310 C.3    15  THR15       0.1808
     13  OG1        6.5510   -0.3290   12.0960 O.3    15  THR15      -0.2208
     14  CG2        8.1650   -1.9980   11.5800 C.3    15  THR15       0.0379
     15  N          7.9890    1.9900   10.6390 N.am   16  THR16      -0.1950
     16  CA         8.8680    3.1110   11.0540 C.3    16  THR16       0.1897
     17  C          8.2800    3.8570   12.2790 C.2    16  THR16       0.2313
     18  O          7.0930    3.7160   12.5860 O.2    16  THR16      -0.2863
     19  CB         9.0870    4.0840    9.8640 C.3    16  THR16       0.1794
     20  OG1        9.3280    3.3680    8.6560 O.3    16  THR16      -0.2208
     21  CG2       10.2470    5.0590   10.0490 C.3    16  THR16       0.0378
     22  N          4.6440    6.4190   11.7640 N.3    19  ILE19      -0.1245
     23  CA         3.3270    5.7560   11.8430 C.3    19  ILE19       0.1561
     24  C          3.5440    4.2230   11.8800 C.2    19  ILE19       0.2260
     25  O          3.4750    3.5570   10.8400 O.2    19  ILE19      -0.2867
     26  CB         2.3860    6.1670   10.6500 C.3    19  ILE19       0.0252
     27  CG1        2.2450    7.7120   10.5720 C.3    19  ILE19       0.0019
     28  CG2        1.0010    5.5040   10.7830 C.3    19  ILE19       0.0019
     29  CD1        1.6040    8.2300    9.2960 C.3    19  ILE19       0.0001
     30  N          1.2220   -2.0260    3.3500 N.3    54  LEU54      -0.1245
     31  CA         2.4220   -1.1930    3.1310 C.3    54  LEU54       0.1561
     32  C          3.5920   -2.0190    2.5420 C.2    54  LEU54       0.2260
     33  O          4.4010   -1.4820    1.7810 O.2    54  LEU54      -0.2867
     34  CB         2.8540   -0.5020    4.4600 C.3    54  LEU54       0.0270
     35  CG         2.9610    1.0450    4.4400 C.3    54  LEU54       0.0019
     36  CD1        4.0270    1.5180    3.4510 C.3    54  LEU54       0.0001
     37  CD2        1.6050    1.7010    4.1390 C.3    54  LEU54       0.0001
     38  N          3.0090   -2.7380   -1.4210 N.3    57  LEU57      -0.1231
     39  CA         3.1860   -1.5070   -2.2240 C.3    57  LEU57       0.1693
     40  C          4.6800   -1.1370   -2.3800 C.2    57  LEU57       0.2592
     41  O          5.0790   -0.6110   -3.4240 O.2    57  LEU57      -0.2718
     42  CB         2.3980   -0.3220   -1.6000 C.3    57  LEU57       0.0284
     43  CG         1.5240    0.5050   -2.5750 C.3    57  LEU57       0.0019
     44  CD1        0.6440    1.4920   -1.8050 C.3    57  LEU57       0.0001
     45  CD2        2.3830    1.2410   -3.6130 C.3    57  LEU57       0.0001
     46  N          5.5000   -1.4240   -1.3400 N.am   58  GLY58      -0.1957
     47  CA         6.9360   -1.1250   -1.3780 C.3    58  GLY58       0.1869
     48  C          7.7430   -2.0440   -2.3030 C.2    58  GLY58       0.2309
     49  O          8.7260   -1.5980   -2.9000 O.2    58  GLY58      -0.2863
     50  N          7.6070   -0.8660   -6.0960 N.3    61  ILE61      -0.1231
     51  CA         8.4290    0.3380   -6.3590 C.3    61  ILE61       0.1692
     52  C          9.9320   -0.0190   -6.5410 C.2    61  ILE61       0.2591
     53  O         10.6550    0.7050   -7.2330 O.2    61  ILE61      -0.2718
     54  CB         8.2380    1.3990   -5.2060 C.3    61  ILE61       0.0266
     55  CG1        6.7440    1.8090   -5.0920 C.3    61  ILE61       0.0019
     56  CG2        9.1150    2.6500   -5.4050 C.3    61  ILE61       0.0020
     57  CD1        6.3730    2.4860   -3.7840 C.3    61  ILE61       0.0001
     58  N         10.3910   -1.1300   -5.9180 N.am   62  MET62      -0.1979
     59  CA        11.8020   -1.5720   -6.0080 C.3    62  MET62       0.1605
     60  C         12.0690   -2.4550   -7.2470 C.2    62  MET62       0.2287
     61  O         13.1090   -2.3050   -7.8970 O.2    62  MET62      -0.2864
     62  CB        12.1980   -2.3360   -4.7210 C.3    62  MET62       0.0413
     63  CG        13.7050   -2.5520   -4.5250 C.3    62  MET62       0.0598
     64  SD        14.5880   -1.0540   -4.0160 S.3    62  MET62      -0.1393
     65  CE        15.5830   -1.6690   -2.6580 C.3    62  MET62       0.0692
     66  N         12.0320    4.7790   -8.3660 N.3    67  TYR67      -0.1241
     67  CA        12.9410    5.7980   -7.8160 C.3    67  TYR67       0.1605
     68  C         14.4050    5.4390   -8.1460 C.2    67  TYR67       0.2264
     69  O         14.9470    4.4580   -7.6240 O.2    67  TYR67      -0.2867
     70  CB        12.6990    5.9910   -6.2890 C.3    67  TYR67       0.0534
     71  CG        13.3170    4.9480   -5.3470 C.ar   67  TYR67      -0.0201
     72  CD1       12.8470    3.6350   -5.2980 C.ar   67  TYR67      -0.0009
     73  CD2       14.3690    5.2920   -4.4990 C.ar   67  TYR67      -0.0009
     74  CE1       13.4050    2.7070   -4.4390 C.ar   67  TYR67       0.0417
     75  CE2       14.9300    4.3670   -3.6400 C.ar   67  TYR67       0.0417
     76  CZ        14.4460    3.0770   -3.6130 C.ar   67  TYR67       0.1957
     77  OH        15.0030    2.1550   -2.7540 O.3    67  TYR67      -0.2866
     78  N         -3.6620    7.8400   -5.3540 N.3    86  PHE86      -0.1241
     79  CA        -3.2190    9.1080   -4.7380 C.3    86  PHE86       0.1605
     80  C         -3.7110   10.3200   -5.5530 C.2    86  PHE86       0.2264
     81  O         -4.1530   11.3180   -4.9730 O.2    86  PHE86      -0.2867
     82  CB        -1.6800    9.1470   -4.6030 C.3    86  PHE86       0.0534
     83  CG        -1.0930    7.9770   -3.8340 C.ar   86  PHE86      -0.0203
     84  CD1       -1.2790    7.8620   -2.4600 C.ar   86  PHE86      -0.0042
     85  CD2       -0.3550    6.9950   -4.4860 C.ar   86  PHE86      -0.0042
     86  CE1       -0.7450    6.7970   -1.7610 C.ar   86  PHE86      -0.0003
     87  CE2        0.1800    5.9300   -3.7880 C.ar   86  PHE86      -0.0003
     88  CZ        -0.0150    5.8310   -2.4250 C.ar   86  PHE86      -0.0000
     89  N          5.4300   12.2080   -6.2280 N.3    91  PHE91      -0.1241
     90  CA         5.2820   12.2530   -4.7560 C.3    91  PHE91       0.1605
     91  C          6.6100   11.9010   -4.0460 C.2    91  PHE91       0.2264
     92  O          7.5610   11.4540   -4.6920 O.2    91  PHE91      -0.2867
     93  CB         4.1390   11.3060   -4.3020 C.3    91  PHE91       0.0534
     94  CG         4.3900    9.8300   -4.5680 C.ar   91  PHE91      -0.0203
     95  CD1        4.1000    9.2670   -5.8060 C.ar   91  PHE91      -0.0042
     96  CD2        4.9240    9.0110   -3.5780 C.ar   91  PHE91      -0.0042
     97  CE1        4.3390    7.9280   -6.0470 C.ar   91  PHE91      -0.0003
     98  CE2        5.1610    7.6730   -3.8170 C.ar   91  PHE91      -0.0003
     99  CZ         4.8700    7.1300   -5.0520 C.ar   91  PHE91      -0.0000
    100  N          8.9640    9.6660   -1.3570 N.3    93  VAL93      -0.1231
    101  CA         9.0540    8.2810   -0.8390 C.3    93  VAL93       0.1692
    102  C          9.4100    8.2330    0.6670 C.2    93  VAL93       0.2591
    103  O          8.8190    7.4450    1.4120 O.2    93  VAL93      -0.2718
    104  CB        10.0630    7.4170   -1.6840 C.3    93  VAL93       0.0266
    105  CG1       11.5350    7.8030   -1.4470 C.3    93  VAL93       0.0020
    106  CG2        9.8430    5.9180   -1.4440 C.3    93  VAL93       0.0020
    107  N         10.3750    9.0710    1.1060 N.am   94  LYS94      -0.1980
    108  CA        10.8010    9.1100    2.5240 C.3    94  LYS94       0.1596
    109  C          9.7630    9.7980    3.4410 C.2    94  LYS94       0.2287
    110  O          9.7920    9.5840    4.6580 O.2    94  LYS94      -0.2864
    111  CB        12.1970    9.7620    2.6850 C.3    94  LYS94       0.0298
    112  CG        12.3380   11.1910    2.1260 C.3    94  LYS94       0.0038
    113  CD        13.6950   11.4300    1.4440 C.3    94  LYS94       0.0206
    114  CE        13.8000   10.7710    0.0620 C.3    94  LYS94       0.1093
    115  NZ        12.8620   11.3650   -0.9400 N.3    94  LYS94      -0.1314
    116  N          6.6880    9.7690    5.2620 N.3    96  HIS96      -0.1241
    117  CA         5.7190    8.7550    5.7360 C.3    96  HIS96       0.1621
    118  C          4.4200    9.3730    6.2900 C.2    96  HIS96       0.2264
    119  O          3.4160    8.6650    6.4130 O.2    96  HIS96      -0.2867
    120  CB         6.3740    7.8440    6.8000 C.3    96  HIS96       0.0745
    121  CG         7.6270    7.1340    6.3380 C.ar   96  HIS96       0.0817
    122  ND1        8.4570    6.4390    7.1960 N.ar   96  HIS96      -0.2268
    123  CD2        8.1840    7.0070    5.1040 C.ar   96  HIS96       0.1154
    124  CE1        9.4610    5.9170    6.5110 C.ar   96  HIS96       0.1986
    125  NE2        9.3170    6.2490    5.2450 N.ar   96  HIS96      -0.2212
    126  N          1.9790    9.8190    2.7450 N.3    99  ILE99      -0.1231
    127  CA         1.4860    8.6240    2.0220 C.3    99  ILE99       0.1692
    128  C          0.4690    7.8080    2.8600 C.2    99  ILE99       0.2592
    129  O         -0.4970    7.2840    2.2970 O.2    99  ILE99      -0.2718
    130  CB         2.6590    7.6820    1.5500 C.3    99  ILE99       0.0266
    131  CG1        3.8050    8.4920    0.8760 C.3    99  ILE99       0.0019
    132  CG2        2.1390    6.6030    0.5830 C.3    99  ILE99       0.0020
    133  CD1        5.1200    7.7320    0.7220 C.3    99  ILE99       0.0001
    134  N          0.6860    7.6900    4.1920 N.am  100  TYR100     -0.1976
    135  CA        -0.2310    6.9170    5.0760 C.3   100  TYR100      0.1639
    136  C         -1.6120    7.5940    5.2240 C.2   100  TYR100      0.2290
    137  O         -2.6260    6.8990    5.3460 O.2   100  TYR100     -0.2864
    138  CB         0.3960    6.6790    6.4780 C.3   100  TYR100      0.0560
    139  CG         0.6550    5.2090    6.8180 C.ar  100  TYR100     -0.0198
    140  CD1       -0.3910    4.2850    6.8740 C.ar  100  TYR100     -0.0009
    141  CD2        1.9450    4.7470    7.0860 C.ar  100  TYR100     -0.0009
    142  CE1       -0.1580    2.9590    7.1820 C.ar  100  TYR100      0.0417
    143  CE2        2.1810    3.4190    7.3950 C.ar  100  TYR100      0.0417
    144  CZ         1.1280    2.5300    7.4420 C.ar  100  TYR100      0.1957
    145  OH         1.3600    1.2060    7.7480 O.3   100  TYR100     -0.2866
    146  N         -3.9090    6.6610    2.2870 N.3   103  ILE103     -0.1245
    147  CA        -4.3470    5.2500    2.3770 C.3   103  ILE103      0.1561
    148  C         -5.5260    5.0860    3.3750 C.2   103  ILE103      0.2260
    149  O         -6.3040    4.1390    3.2520 O.2   103  ILE103     -0.2867
    150  CB        -3.1380    4.3220    2.7800 C.3   103  ILE103      0.0252
    151  CG1       -2.0440    4.3630    1.6790 C.3   103  ILE103      0.0019
    152  CG2       -3.5680    2.8670    3.0540 C.3   103  ILE103      0.0019
    153  CD1       -0.6580    3.9600    2.1520 C.3   103  ILE103      0.0001
@<TRIPOS>BOND
     1    66    67    1
     2    68    67    1
     3    68    69    2
     4    61    60    2
     5    67    70    1
     6    60    59    1
     7    53    52    2
     8    52    51    1
     9    52    58   am
    10    51    50    1
    11    51    54    1
    12    70    71    1
    13    89    90    1
    14    97    95   ar
    15    97    99   ar
    16    59    58    1
    17    59    62    1
    18    95    94   ar
    19    80    81    2
    20    80    79    1
    21    56    54    1
    22    78    79    1
    23    71    72   ar
    24    71    73   ar
    25    72    74   ar
    26    54    55    1
    27    55    57    1
    28    99    98   ar
    29    90    93    1
    30    90    91    1
    31    79    82    1
    32    62    63    1
    33    92    91    2
    34    82    83    1
    35    94    93    1
    36    94    96   ar
    37    63    64    1
    38    73    75   ar
    39    85    83   ar
    40    85    87   ar
    41    74    76   ar
    42    64    65    1
    43    83    84   ar
    44    98    96   ar
    45    87    88   ar
    46    75    76   ar
    47    45    43    1
    48    76    77    1
    49    41    40    2
    50    49    48    2
    51    43    44    1
    52    43    42    1
    53    84    86   ar
    54    88    86   ar
    55    40    39    1
    56    40    46   am
    57    48    47    1
    58    39    42    1
    59    39    38    1
    60   104   105    1
    61   104   106    1
    62   104   101    1
    63    47    46    1
    64   100   101    1
    65   115   114    1
    66   101   102    1
    67   114   113    1
    68   132   130    1
    69   102   107   am
    70   102   103    2
    71   133   131    1
    72   131   130    1
    73   107   108    1
    74   113   112    1
    75   130   127    1
    76   151   153    1
    77   151   150    1
    78    33    32    2
    79   127   126    1
    80   127   128    1
    81   112   111    1
    82   146   147    1
    83   129   128    2
    84   147   150    1
    85   147   148    1
    86   108   111    1
    87   108   109    1
    88    32    31    1
    89   150   152    1
    90   128   134   am
    91    31    30    1
    92    31    34    1
    93   149   148    2
    94   109   110    2
    95    36    35    1
    96    37    35    1
    97   134   135    1
    98     7     5    1
    99    35    34    1
   100   135   136    1
   101   135   138    1
   102   123   125   ar
   103   123   121   ar
   104   136   137    2
   105   125   124   ar
   106   116   117    1
   107     6     5    1
   108     5     2    1
   109   117   118    1
   110   117   120    1
   111   118   119    2
   112   121   120    1
   113   121   122   ar
   114   138   139    1
   115   124   122   ar
   116   139   140   ar
   117   139   141   ar
   118     2     1    1
   119     2     3    1
   120   140   142   ar
   121   141   143   ar
   122   142   144   ar
   123   143   144   ar
   124   144   145    1
   125     3     4    2
   126     3     8   am
   127    20    19    1
   128     8     9    1
   129    29    27    1
   130     9    10    1
   131     9    12    1
   132    19    21    1
   133    19    16    1
   134    11    10    2
   135    10    15   am
   136    27    26    1
   137    15    16    1
   138    26    28    1
   139    26    23    1
   140    25    24    2
   141    12    14    1
   142    12    13    1
   143    16    17    1
   144    22    23    1
   145    23    24    1
   146    17    18    2
