@<TRIPOS>MOLECULE
tmp/2m0oA00.pdb
 93 91 0 0 0
SMALL
GASTEIGER

@<TRIPOS>ATOM
      1  N         -0.1570    0.0440   -6.8920 N.3    34  LEU34      -0.1245
      2  CA        -1.1470   -0.9400   -7.2550 C.3    34  LEU34       0.1561
      3  C         -1.1600   -2.0210   -6.1940 C.2    34  LEU34       0.2260
      4  O         -0.2850   -2.8950   -6.1460 O.2    34  LEU34      -0.2867
      5  CB        -0.8590   -1.5170   -8.6420 C.3    34  LEU34       0.0270
      6  CG        -1.0130   -0.5320   -9.8130 C.3    34  LEU34       0.0019
      7  CD1       -0.4810   -1.1270  -11.1070 C.3    34  LEU34       0.0001
      8  CD2       -2.4650   -0.1360   -9.9860 C.3    34  LEU34       0.0001
      9  N         -8.4180  -11.2570   -6.6190 N.3    40  GLY40      -0.1210
     10  CA        -7.8190  -11.4520   -7.9320 C.3    40  GLY40       0.1956
     11  C         -7.6960  -10.1570   -8.7200 C.2    40  GLY40       0.2612
     12  O         -6.9970  -10.1100   -9.7370 O.2    40  GLY40      -0.2717
     13  N         -8.3780   -9.1100   -8.2410 N.am   41  LEU41      -0.1965
     14  CA        -8.3640   -7.8020   -8.8900 C.3    41  LEU41       0.1728
     15  C         -7.3680   -6.8600   -8.2150 C.2    41  LEU41       0.2616
     16  O         -7.0960   -6.9830   -7.0160 O.2    41  LEU41      -0.2715
     17  CB        -9.7670   -7.1850   -8.8690 C.3    41  LEU41       0.0311
     18  CG       -10.8170   -7.9460   -9.6820 C.3    41  LEU41       0.0022
     19  CD1      -12.0450   -8.2200   -8.8360 C.3    41  LEU41       0.0001
     20  CD2      -11.1910   -7.1750  -10.9370 C.3    41  LEU41       0.0001
     21  N         -6.8360   -5.9220   -9.0040 N.am   42  LEU42      -0.1963
     22  CA        -5.8660   -4.9310   -8.5280 C.3    42  LEU42       0.1728
     23  C         -6.5850   -3.7030   -7.9440 C.2    42  LEU42       0.2616
     24  O         -7.7820   -3.5060   -8.1800 O.2    42  LEU42      -0.2715
     25  CB        -4.9600   -4.5140   -9.7110 C.3    42  LEU42       0.0311
     26  CG        -3.6810   -3.7180   -9.4020 C.3    42  LEU42       0.0022
     27  CD1       -2.7530   -4.4530   -8.4380 C.3    42  LEU42       0.0001
     28  CD2       -2.9630   -3.4320  -10.7090 C.3    42  LEU42       0.0001
     29  N         -5.8380   -2.8850   -7.1940 N.am   43  TYR43      -0.1960
     30  CA        -6.3770   -1.6750   -6.5670 C.3    43  TYR43       0.1771
     31  C         -5.4160   -0.5100   -6.7940 C.2    43  TYR43       0.2619
     32  O         -4.2040   -0.6700   -6.6360 O.2    43  TYR43      -0.2715
     33  CB        -6.5600   -1.8670   -5.0460 C.3    43  TYR43       0.0574
     34  CG        -7.7220   -2.7430   -4.5550 C.ar   43  TYR43      -0.0198
     35  CD1       -8.7460   -3.2050   -5.3850 C.ar   43  TYR43      -0.0009
     36  CD2       -7.7880   -3.0870   -3.2080 C.ar   43  TYR43      -0.0009
     37  CE1       -9.7840   -3.9710   -4.8900 C.ar   43  TYR43       0.0417
     38  CE2       -8.8220   -3.8560   -2.7090 C.ar   43  TYR43       0.0417
     39  CZ        -9.8160   -4.2940   -3.5540 C.ar   43  TYR43       0.1957
     40  OH       -10.8500   -5.0550   -3.0580 O.3    43  TYR43      -0.2866
     41  N         -5.9560    0.6530   -7.1700 N.am   44  LEU44      -0.1977
     42  CA        -5.1360    1.8430   -7.3940 C.3    44  LEU44       0.1596
     43  C         -5.2230    2.7750   -6.1890 C.2    44  LEU44       0.2287
     44  O         -6.3150    3.0500   -5.6850 O.2    44  LEU44      -0.2864
     45  CB        -5.5670    2.5790   -8.6780 C.3    44  LEU44       0.0297
     46  CG        -4.7730    3.8610   -9.0330 C.3    44  LEU44       0.0022
     47  CD1       -3.3760    3.5330   -9.5540 C.3    44  LEU44       0.0001
     48  CD2       -5.5290    4.6960  -10.0550 C.3    44  LEU44       0.0001
     49  N         -6.8570    4.9580   -1.5000 N.3    61  PHE61      -0.1227
     50  CA        -7.3780    4.4960   -2.7820 C.3    61  PHE61       0.1736
     51  C         -8.3990    5.4550   -3.3900 C.2    61  PHE61       0.2595
     52  O         -8.9350    6.3310   -2.7040 O.2    61  PHE61      -0.2718
     53  CB        -7.9440    3.0870   -2.6050 C.3    61  PHE61       0.0547
     54  CG        -6.8750    2.0790   -2.2540 C.ar   61  PHE61      -0.0202
     55  CD1       -6.4820    1.8880   -0.9380 C.ar   61  PHE61      -0.0042
     56  CD2       -6.2450    1.3490   -3.2400 C.ar   61  PHE61      -0.0042
     57  CE1       -5.4900    0.9850   -0.6200 C.ar   61  PHE61      -0.0003
     58  CE2       -5.2510    0.4480   -2.9270 C.ar   61  PHE61      -0.0003
     59  CZ        -4.8760    0.2650   -1.6160 C.ar   61  PHE61      -0.0000
     60  N         -8.6490    5.2680   -4.7020 N.am   62  GLU62      -0.1965
     61  CA        -9.5780    6.0980   -5.4890 C.3    62  GLU62       0.1733
     62  C        -10.9580    6.2410   -4.8380 C.2    62  GLU62       0.2616
     63  O        -11.5090    7.3460   -4.7970 O.2    62  GLU62      -0.2715
     64  CB        -9.7390    5.5070   -6.8900 C.3    62  GLU62       0.0429
     65  CG        -9.8360    6.5470   -8.0070 C.3    62  GLU62       0.1163
     66  CD       -11.1490    7.3260   -8.0250 C.2    62  GLU62       0.3649
     67  OE1      -12.2150    6.7220   -7.7670 O.co2  62  GLU62      -0.2457
     68  OE2      -11.1080    8.5410   -8.3070 O.co2  62  GLU62      -0.2457
     69  N        -11.5110    5.1250   -4.3340 N.am   63  ASP63      -0.1971
     70  CA       -12.8310    5.1530   -3.6960 C.3    63  ASP63       0.1709
     71  C        -12.7320    5.4910   -2.1880 C.2    63  ASP63       0.2293
     72  O        -13.5170    4.9930   -1.3710 O.2    63  ASP63      -0.2864
     73  CB       -13.5580    3.8180   -3.9490 C.3    63  ASP63       0.1436
     74  CG       -15.0560    3.8890   -3.6890 C.2    63  ASP63       0.3671
     75  OD1      -15.7320    4.7210   -4.3300 O.co2  63  ASP63      -0.2456
     76  OD2      -15.5480    3.1110   -2.8460 O.co2  63  ASP63      -0.2456
     77  N        -10.6710    4.5860    0.0040 N.3    65  SER65      -0.1217
     78  CA       -10.3450    3.4070    0.8030 C.3    65  SER65       0.1889
     79  C         -8.9200    3.4950    1.3320 C.2    65  SER65       0.2288
     80  O         -7.9750    3.6120    0.5580 O.2    65  SER65      -0.2866
     81  CB       -10.5090    2.1250   -0.0320 C.3    65  SER65       0.2089
     82  OG       -11.5400    1.3050    0.4920 O.3    65  SER65      -0.2183
     83  N         -6.4020    1.4060    2.8640 N.3    67  PHE67      -0.1241
     84  CA        -6.0620    0.0070    3.0660 C.3    67  PHE67       0.1605
     85  C         -4.5570   -0.2030    3.2000 C.2    67  PHE67       0.2264
     86  O         -3.7680    0.3210    2.4070 O.2    67  PHE67      -0.2867
     87  CB        -6.6380   -0.7810    1.8720 C.3    67  PHE67       0.0534
     88  CG        -7.8970   -1.5930    2.1320 C.ar   67  PHE67      -0.0203
     89  CD1       -8.7220   -1.3740    3.2380 C.ar   67  PHE67      -0.0042
     90  CD2       -8.2590   -2.5820    1.2340 C.ar   67  PHE67      -0.0042
     91  CE1       -9.8640   -2.1300    3.4300 C.ar   67  PHE67      -0.0003
     92  CE2       -9.4000   -3.3370    1.4240 C.ar   67  PHE67      -0.0003
     93  CZ       -10.2010   -3.1130    2.5250 C.ar   67  PHE67      -0.0000
@<TRIPOS>BOND
     1     7     6    1
     2    20    18    1
     3    28    26    1
     4    48    46    1
     5     8     6    1
     6     6     5    1
     7    12    11    2
     8    25    26    1
     9    25    22    1
    10    18    17    1
    11    18    19    1
    12    47    46    1
    13    26    27    1
    14    46    45    1
    15    21    22    1
    16    21    15   am
    17    14    17    1
    18    14    13    1
    19    14    15    1
    20    11    13   am
    21    11    10    1
    22    45    42    1
    23     5     2    1
    24    22    23    1
    25    68    66   ar
    26    15    16    2
    27    24    23    2
    28    66    65    1
    29    66    67   ar
    30    65    64    1
    31    23    29   am
    32    10     9    1
    33    42    41    1
    34    42    43    1
    35     2     1    1
    36     2     3    1
    37    29    30    1
    38    41    31   am
    39    64    61    1
    40    31    32    2
    41    31    30    1
    42    30    33    1
    43     3     4    2
    44    43    44    2
    45    61    62    1
    46    61    60    1
    47    35    37   ar
    48    35    34   ar
    49    33    34    1
    50    37    39   ar
    51    62    63    2
    52    62    69   am
    53    60    51   am
    54    34    36   ar
    55    69    70    1
    56    75    74   ar
    57    73    70    1
    58    73    74    1
    59    70    71    1
    60    74    76   ar
    61    39    40    1
    62    39    38   ar
    63    51    50    1
    64    51    52    2
    65    56    58   ar
    66    56    54   ar
    67    36    38   ar
    68    58    59   ar
    69    50    53    1
    70    50    49    1
    71    53    54    1
    72    54    55   ar
    73    71    72    2
    74    59    57   ar
    75    55    57   ar
    76    81    82    1
    77    81    78    1
    78    77    78    1
    79    80    79    2
    80    78    79    1
    81    90    92   ar
    82    90    88   ar
    83    92    93   ar
    84    87    88    1
    85    87    84    1
    86    88    89   ar
    87    86    85    2
    88    93    91   ar
    89    83    84    1
    90    84    85    1
    91    89    91   ar
