@<TRIPOS>MOLECULE
tmp/2m0uA00.pdb
 122 122 0 0 0
SMALL
GASTEIGER

@<TRIPOS>ATOM
      1  N         -0.0310   22.1900   -5.9990 N.3    19  ASN19      -0.1225
      2  CA        -0.2350   22.6930   -4.6430 C.3    19  ASN19       0.1785
      3  C         -1.1240   21.7480   -3.8410 C.2    19  ASN19       0.2598
      4  O         -1.7600   22.1510   -2.8680 O.2    19  ASN19      -0.2718
      5  CB        -0.8530   24.1000   -4.6880 C.3    19  ASN19       0.1169
      6  CG        -2.2520   24.1180   -5.2800 C.2    19  ASN19       0.2627
      7  OD1       -2.4230   24.1330   -6.4990 O.2    19  ASN19      -0.2716
      8  ND2       -3.2610   24.1390   -4.4230 N.am   19  ASN19      -0.0877
      9  N         -1.1320   20.4830   -4.2340 N.am   20  GLY20      -0.1942
     10  CA        -2.0130   19.5180   -3.6180 C.3    20  GLY20       0.2014
     11  C         -2.0930   18.2450   -4.4280 C.2    20  GLY20       0.2639
     12  O         -1.0870   17.8050   -4.9870 O.2    20  GLY20      -0.2714
     13  N         -3.2780   17.6580   -4.5120 N.am   21  TYR21      -0.1959
     14  CA        -3.4390   16.3760   -5.1860 C.3    21  TYR21       0.1771
     15  C         -4.5060   16.4470   -6.2740 C.2    21  TYR21       0.2620
     16  O         -4.4600   15.6920   -7.2410 O.2    21  TYR21      -0.2715
     17  CB        -3.7670   15.2890   -4.1650 C.3    21  TYR21       0.0574
     18  CG        -2.7610   15.2440   -3.0410 C.ar   21  TYR21      -0.0198
     19  CD1       -1.5120   14.6690   -3.2290 C.ar   21  TYR21      -0.0009
     20  CD2       -3.0430   15.8100   -1.8070 C.ar   21  TYR21      -0.0009
     21  CE1       -0.5740   14.6530   -2.2180 C.ar   21  TYR21       0.0417
     22  CE2       -2.1130   15.7950   -0.7870 C.ar   21  TYR21       0.0417
     23  CZ        -0.8790   15.2170   -0.9990 C.ar   21  TYR21       0.1957
     24  OH         0.0510   15.2110    0.0130 O.3    21  TYR21      -0.2866
     25  N         -5.4640   17.3470   -6.1040 N.am   22  GLY22      -0.1940
     26  CA        -6.3800   17.6680   -7.1780 C.3    22  GLY22       0.2014
     27  C         -7.7340   16.9890   -7.0720 C.2    22  GLY22       0.2639
     28  O         -8.2910   16.5600   -8.0810 O.2    22  GLY22      -0.2714
     29  N         -8.2760   16.8790   -5.8700 N.am   23  PHE23      -0.1959
     30  CA        -9.6350   16.3950   -5.7200 C.3    23  PHE23       0.1771
     31  C        -10.3600   17.1540   -4.6210 C.2    23  PHE23       0.2620
     32  O         -9.7400   17.7540   -3.7430 O.2    23  PHE23      -0.2715
     33  CB        -9.6710   14.8820   -5.4610 C.3    23  PHE23       0.0574
     34  CG        -8.9640   14.4310   -4.2150 C.ar   23  PHE23      -0.0200
     35  CD1       -7.5810   14.4460   -4.1380 C.ar   23  PHE23      -0.0042
     36  CD2       -9.6840   13.9730   -3.1280 C.ar   23  PHE23      -0.0042
     37  CE1       -6.9330   14.0140   -2.9990 C.ar   23  PHE23      -0.0003
     38  CE2       -9.0400   13.5340   -1.9880 C.ar   23  PHE23      -0.0003
     39  CZ        -7.6630   13.5570   -1.9240 C.ar   23  PHE23      -0.0000
     40  N        -11.6760   17.1490   -4.7080 N.am   24  HIS24      -0.1959
     41  CA       -12.5210   17.8080   -3.7300 C.3    24  HIS24       0.1787
     42  C        -13.2050   16.7390   -2.9030 C.2    24  HIS24       0.2620
     43  O        -13.9590   15.9340   -3.4410 O.2    24  HIS24      -0.2715
     44  CB       -13.5870   18.6850   -4.4130 C.3    24  HIS24       0.0785
     45  CG       -13.0370   19.7850   -5.2780 C.ar   24  HIS24       0.0821
     46  ND1      -13.4710   21.0920   -5.2090 N.ar   24  HIS24      -0.2267
     47  CD2      -12.1020   19.7590   -6.2600 C.ar   24  HIS24       0.1154
     48  CE1      -12.8280   21.8150   -6.1040 C.ar   24  HIS24       0.1986
     49  NE2      -11.9930   21.0310   -6.7540 N.ar   24  HIS24      -0.2212
     50  N        -12.9260   16.7060   -1.6150 N.am   25  LEU25      -0.1963
     51  CA       -13.5120   15.6980   -0.7510 C.3    25  LEU25       0.1728
     52  C        -14.6670   16.3040    0.0340 C.2    25  LEU25       0.2616
     53  O        -14.5300   17.3790    0.6200 O.2    25  LEU25      -0.2715
     54  CB       -12.4390   15.1220    0.1880 C.3    25  LEU25       0.0311
     55  CG       -12.8340   13.8650    0.9800 C.3    25  LEU25       0.0022
     56  CD1      -11.5990   13.0490    1.3230 C.3    25  LEU25       0.0001
     57  CD2      -13.5730   14.2360    2.2570 C.3    25  LEU25       0.0001
     58  N        -15.8040   15.6230    0.0300 N.am   26  HIS26      -0.1973
     59  CA       -16.9540   16.0790    0.7910 C.3    26  HIS26       0.1656
     60  C        -17.1510   15.1610    1.9820 C.2    26  HIS26       0.2291
     61  O        -17.0010   13.9410    1.8720 O.2    26  HIS26      -0.2864
     62  CB       -18.2340   16.1430   -0.0670 C.3    26  HIS26       0.0771
     63  CG       -18.9450   14.8300   -0.2830 C.ar   26  HIS26       0.0820
     64  ND1      -19.9850   14.4020    0.5170 N.ar   26  HIS26      -0.2267
     65  CD2      -18.7830   13.8730   -1.2260 C.ar   26  HIS26       0.1154
     66  CE1      -20.4300   13.2400    0.0750 C.ar   26  HIS26       0.1986
     67  NE2      -19.7210   12.8990   -0.9840 N.ar   26  HIS26      -0.2212
     68  N        -15.8870   14.1620   -3.8400 N.3    37  ARG37      -0.1231
     69  CA       -16.9840   14.9440   -4.3860 C.3    37  ARG37       0.1694
     70  C        -16.7400   15.2470   -5.8610 C.2    37  ARG37       0.2591
     71  O        -17.6510   15.1760   -6.6820 O.2    37  ARG37      -0.2718
     72  CB       -17.0980   16.2460   -3.5870 C.3    37  ARG37       0.0321
     73  CG       -18.5070   16.7970   -3.4440 C.3    37  ARG37       0.0489
     74  CD       -19.0270   17.4240   -4.7210 C.3    37  ARG37       0.2205
     75  NE       -20.0250   18.4490   -4.4280 N.pl3  37  ARG37      -0.0865
     76  CZ       -21.2300   18.5090   -4.9860 C.cat  37  ARG37       0.5346
     77  NH1      -21.5980   17.6060   -5.8860 N.pl3  37  ARG37       0.1354
     78  NH2      -22.0730   19.4710   -4.6290 N.pl3  37  ARG37       0.1354
     79  N        -15.5000   15.5820   -6.1830 N.am   38  LEU38      -0.1980
     80  CA       -15.1270   15.9380   -7.5410 C.3    38  LEU38       0.1596
     81  C        -13.6250   15.7820   -7.7250 C.2    38  LEU38       0.2287
     82  O        -12.8540   16.0970   -6.8220 O.2    38  LEU38      -0.2864
     83  CB       -15.5450   17.3810   -7.8470 C.3    38  LEU38       0.0297
     84  CG       -15.2240   17.8730   -9.2590 C.3    38  LEU38       0.0022
     85  CD1      -16.0410   17.1080  -10.2910 C.3    38  LEU38       0.0001
     86  CD2      -15.4880   19.3660   -9.3650 C.3    38  LEU38       0.0001
     87  N        -13.5740   15.8170    9.7550 N.3    69  HIS69      -0.1241
     88  CA       -13.4270   16.1340    8.3360 C.3    69  HIS69       0.1621
     89  C        -12.1220   16.8920    8.0990 C.2    69  HIS69       0.2264
     90  O        -11.3890   16.6050    7.1510 O.2    69  HIS69      -0.2867
     91  CB       -14.6230   16.9520    7.8330 C.3    69  HIS69       0.0745
     92  CG       -14.5290   17.3290    6.3850 C.ar   69  HIS69       0.0817
     93  ND1      -14.6710   16.4190    5.3550 N.ar   69  HIS69      -0.2268
     94  CD2      -14.2930   18.5250    5.7970 C.ar   69  HIS69       0.1154
     95  CE1      -14.5250   17.0420    4.2000 C.ar   69  HIS69       0.1986
     96  NE2      -14.2960   18.3190    4.4410 N.ar   69  HIS69      -0.2212
     97  N         -8.6410   15.5200    5.9520 N.3    73  VAL73      -0.1245
     98  CA        -7.9810   16.3050    4.9160 C.3    73  VAL73       0.1561
     99  C         -6.5370   16.6050    5.3160 C.2    73  VAL73       0.2260
    100  O         -5.6240   16.5760    4.4860 O.2    73  VAL73      -0.2867
    101  CB        -8.7380   17.6270    4.6540 C.3    73  VAL73       0.0252
    102  CG1       -8.0810   18.4340    3.5460 C.3    73  VAL73       0.0019
    103  CG2      -10.1920   17.3490    4.3100 C.3    73  VAL73       0.0019
    104  N         -3.9510   13.8150    4.5660 N.3    76  ILE76      -0.1231
    105  CA        -3.4700   13.8080    3.1960 C.3    76  ILE76       0.1692
    106  C         -2.4900   14.9590    2.9580 C.2    76  ILE76       0.2591
    107  O         -1.4810   14.8030    2.2670 O.2    76  ILE76      -0.2718
    108  CB        -4.6510   13.9120    2.2060 C.3    76  ILE76       0.0266
    109  CG1       -5.7580   12.9310    2.6060 C.3    76  ILE76       0.0019
    110  CG2       -4.1830   13.6290    0.7840 C.3    76  ILE76       0.0020
    111  CD1       -7.0060   13.0370    1.7580 C.3    76  ILE76       0.0001
    112  N         -2.7830   16.1090    3.5540 N.am   77  ARG77      -0.1980
    113  CA        -1.9500   17.3020    3.3930 C.3    77  ARG77       0.1597
    114  C         -0.6120   17.1620    4.1150 C.2    77  ARG77       0.2287
    115  O          0.3710   17.7970    3.7390 O.2    77  ARG77      -0.2864
    116  CB        -2.6840   18.5460    3.8960 C.3    77  ARG77       0.0334
    117  CG        -3.8340   18.9680    3.0010 C.3    77  ARG77       0.0492
    118  CD        -4.5050   20.2300    3.5100 C.3    77  ARG77       0.2205
    119  NE        -5.5550   20.6910    2.6030 N.pl3  77  ARG77      -0.0865
    120  CZ        -6.3990   21.6860    2.8800 C.cat  77  ARG77       0.5346
    121  NH1       -6.3310   22.3110    4.0460 N.pl3  77  ARG77       0.1354
    122  NH2       -7.3180   22.0420    1.9890 N.pl3  77  ARG77       0.1354
@<TRIPOS>BOND
     1    85    84    1
     2    86    84    1
     3    84    83    1
     4    28    27    2
     5    83    80    1
     6    81    80    1
     7    81    82    2
     8    80    79    1
     9    16    15    2
    10    26    27    1
    11    26    25    1
    12    27    29   am
    13    49    47   ar
    14    49    48   ar
    15    71    70    2
    16     7     6    2
    17    15    25   am
    18    15    14    1
    19    47    45   ar
    20    79    70   am
    21    48    46   ar
    22     1     2    1
    23    77    76    1
    24    29    30    1
    25    70    69    1
    26    30    33    1
    27    30    31    1
    28    33    34    1
    29     6     5    1
    30     6     8   am
    31    45    46   ar
    32    45    44    1
    33    14    13    1
    34    14    17    1
    35    12    11    2
    36    76    78    1
    37    76    75    2
    38    74    75    1
    39    74    73    1
    40    40    31   am
    41    40    41    1
    42     5     2    1
    43     2     3    1
    44    31    32    2
    45    13    11   am
    46    11    10    1
    47    44    41    1
    48    69    68    1
    49    69    72    1
    50     9     3   am
    51     9    10    1
    52    34    35   ar
    53    34    36   ar
    54    17    18    1
    55    35    37   ar
    56     3     4    2
    57    41    42    1
    58    72    73    1
    59    43    42    2
    60    19    18   ar
    61    19    21   ar
    62    36    38   ar
    63    18    20   ar
    64    37    39   ar
    65    42    50   am
    66    21    23   ar
    67    38    39   ar
    68    20    22   ar
    69    50    51    1
    70    65    67   ar
    71    65    63   ar
    72    23    22   ar
    73    23    24    1
    74    67    66   ar
    75    51    52    1
    76    51    54    1
    77    63    62    1
    78    63    64   ar
    79    62    59    1
    80    58    52   am
    81    58    59    1
    82    52    53    2
    83    66    64   ar
    84    54    55    1
    85   110   108    1
    86    59    60    1
    87    55    56    1
    88    55    57    1
    89   111   109    1
    90    61    60    2
    91   122   120    1
    92   108   109    1
    93   108   105    1
    94   107   106    2
    95   119   120    2
    96   119   118    1
    97   120   121    1
    98   106   105    1
    99   106   112   am
   100   117   118    1
   101   117   116    1
   102   105   104    1
   103   113   112    1
   104   113   116    1
   105   113   114    1
   106   102   101    1
   107   115   114    2
   108    95    96   ar
   109    95    93   ar
   110   103   101    1
   111    96    94   ar
   112   100    99    2
   113   101    98    1
   114    98    99    1
   115    98    97    1
   116    93    92   ar
   117    94    92   ar
   118    92    91    1
   119    90    89    2
   120    91    88    1
   121    89    88    1
   122    88    87    1
