@<TRIPOS>MOLECULE
tmp/2m0vA00.pdb
 131 130 0 0 0
SMALL
GASTEIGER

@<TRIPOS>ATOM
      1  N         -8.7150   26.7290   -4.2680 N.3    19  PRO19      -0.2102
      2  CA        -8.6190   28.1330   -3.8890 C.3    19  PRO19       0.1504
      3  C         -7.2280   28.7200   -4.1420 C.2    19  PRO19       0.2576
      4  O         -7.0040   29.3910   -5.1450 O.2    19  PRO19      -0.2718
      5  CB        -8.9430   28.1170   -2.3910 C.3    19  PRO19       0.0282
      6  CG        -8.7170   26.7080   -1.9190 C.3    19  PRO19       0.0208
      7  CD        -8.4420   25.8450   -3.1300 C.3    19  PRO19       0.0893
      8  N         -6.2970   28.4530   -3.2340 N.am   20  SER20      -0.1938
      9  CA        -4.9300   28.9370   -3.3740 C.3    20  SER20       0.2055
     10  C         -3.9790   27.7490   -3.4370 C.2    20  SER20       0.2644
     11  O         -2.7800   27.8630   -3.1780 O.2    20  SER20      -0.2714
     12  CB        -4.5780   29.8540   -2.1990 C.3    20  SER20       0.2130
     13  OG        -3.3520   30.5360   -2.4160 O.3    20  SER20      -0.2179
     14  N         -4.5320   26.6040   -3.7940 N.am   21  GLY21      -0.1939
     15  CA        -3.7610   25.3880   -3.8280 C.3    21  GLY21       0.2014
     16  C         -4.6420   24.1680   -3.7020 C.2    21  GLY21       0.2639
     17  O         -5.7390   24.1320   -4.2530 O.2    21  GLY21      -0.2714
     18  N         -4.1850   23.1930   -2.9420 N.am   22  TYR22      -0.1959
     19  CA        -4.8610   21.9120   -2.8420 C.3    22  TYR22       0.1771
     20  C         -5.6190   21.7990   -1.5270 C.2    22  TYR22       0.2620
     21  O         -6.4380   20.8970   -1.3410 O.2    22  TYR22      -0.2715
     22  CB        -3.8370   20.7960   -2.9710 C.3    22  TYR22       0.0574
     23  CG        -2.9880   20.9220   -4.2150 C.ar   22  TYR22      -0.0198
     24  CD1       -3.5150   20.6440   -5.4660 C.ar   22  TYR22      -0.0009
     25  CD2       -1.6650   21.3370   -4.1370 C.ar   22  TYR22      -0.0009
     26  CE1       -2.7480   20.7740   -6.6080 C.ar   22  TYR22       0.0417
     27  CE2       -0.8920   21.4670   -5.2730 C.ar   22  TYR22       0.0417
     28  CZ        -1.4370   21.1850   -6.5070 C.ar   22  TYR22       0.1957
     29  OH        -0.6660   21.3120   -7.6430 O.3    22  TYR22      -0.2866
     30  N         -5.3320   22.7030   -0.6070 N.am   23  GLY23      -0.1940
     31  CA        -6.1160   22.7890    0.6060 C.3    23  GLY23       0.2014
     32  C         -5.4540   22.1620    1.8180 C.2    23  GLY23       0.2639
     33  O         -6.1400   21.7970    2.7760 O.2    23  GLY23      -0.2714
     34  N         -4.1360   22.0360    1.7990 N.am   24  PHE24      -0.1959
     35  CA        -3.4270   21.5130    2.9560 C.3    24  PHE24       0.1771
     36  C         -2.2700   22.4220    3.3570 C.2    24  PHE24       0.2620
     37  O         -1.7420   23.1870    2.5480 O.2    24  PHE24      -0.2715
     38  CB        -2.9300   20.0840    2.7030 C.3    24  PHE24       0.0574
     39  CG        -2.0280   19.9300    1.5080 C.ar   24  PHE24      -0.0200
     40  CD1       -0.6680   20.1800    1.6080 C.ar   24  PHE24      -0.0042
     41  CD2       -2.5430   19.5190    0.2880 C.ar   24  PHE24      -0.0042
     42  CE1        0.1610   20.0240    0.5140 C.ar   24  PHE24      -0.0003
     43  CE2       -1.7170   19.3650   -0.8090 C.ar   24  PHE24      -0.0003
     44  CZ        -0.3650   19.6160   -0.6960 C.ar   24  PHE24      -0.0000
     45  N         -1.9010   22.3440    4.6230 N.am   25  ASN25      -0.1958
     46  CA        -0.8560   23.1890    5.1780 C.3    25  ASN25       0.1819
     47  C          0.3560   22.3420    5.5490 C.2    25  ASN25       0.2621
     48  O          0.2500   21.4320    6.3660 O.2    25  ASN25      -0.2715
     49  CB        -1.3940   23.9080    6.4240 C.3    25  ASN25       0.1195
     50  CG        -0.6060   25.1520    6.8100 C.2    25  ASN25       0.2630
     51  OD1       -1.1680   26.0990    7.3530 O.2    25  ASN25      -0.2716
     52  ND2        0.6910   25.1630    6.5580 N.am   25  ASN25      -0.0877
     53  N          1.5020   22.6430    4.9550 N.am   26  LEU26      -0.1963
     54  CA         2.7390   21.9470    5.2810 C.3    26  LEU26       0.1728
     55  C          3.5180   22.7370    6.3210 C.2    26  LEU26       0.2616
     56  O          3.6860   23.9520    6.1950 O.2    26  LEU26      -0.2715
     57  CB         3.5980   21.7560    4.0250 C.3    26  LEU26       0.0311
     58  CG         2.9820   20.8720    2.9410 C.3    26  LEU26       0.0022
     59  CD1        3.8800   20.8290    1.7150 C.3    26  LEU26       0.0001
     60  CD2        2.7410   19.4690    3.4720 C.3    26  LEU26       0.0001
     61  N          3.9720   22.0580    7.3560 N.am   27  HIS27      -0.1959
     62  CA         4.7540   22.7100    8.3960 C.3    27  HIS27       0.1787
     63  C          6.2100   22.2920    8.2790 C.2    27  HIS27       0.2620
     64  O          6.5120   21.1590    7.9090 O.2    27  HIS27      -0.2715
     65  CB         4.2140   22.3800    9.7900 C.3    27  HIS27       0.0785
     66  CG         4.6700   23.3280   10.8660 C.ar   27  HIS27       0.0821
     67  ND1        5.6290   23.0210   11.8120 N.ar   27  HIS27      -0.2267
     68  CD2        4.2590   24.5830   11.1580 C.ar   27  HIS27       0.1154
     69  CE1        5.7780   24.0470   12.6320 C.ar   27  HIS27       0.1986
     70  NE2        4.9620   25.0030   12.2520 N.ar   27  HIS27      -0.2212
     71  N          7.0960   23.2240    8.5640 N.am   28  SER28      -0.1950
     72  CA         8.5260   22.9740    8.4990 C.3    28  SER28       0.1924
     73  C          9.1540   23.4320    9.8060 C.2    28  SER28       0.2314
     74  O          8.7580   24.4650   10.3510 O.2    28  SER28      -0.2863
     75  CB         9.1370   23.7270    7.3120 C.3    28  SER28       0.2116
     76  OG        10.3540   23.1330    6.8820 O.3    28  SER28      -0.2180
     77  N          0.1540   19.8370    8.4640 N.3    38  ARG38      -0.1245
     78  CA        -0.1680   20.5120    9.7090 C.3    38  ARG38       0.1563
     79  C         -1.6730   20.6520    9.8690 C.2    38  ARG38       0.2260
     80  O         -2.2200   20.4100   10.9440 O.2    38  ARG38      -0.2867
     81  CB         0.4760   21.8970    9.7580 C.3    38  ARG38       0.0307
     82  CG         0.0600   22.7000   10.9780 C.3    38  ARG38       0.0489
     83  CD         0.7320   24.0580   11.0340 C.3    38  ARG38       0.2205
     84  NE         0.4330   24.7500   12.2860 N.pl3  38  ARG38      -0.0865
     85  CZ         0.9320   25.9380   12.6280 C.cat  38  ARG38       0.5346
     86  NH1        1.7150   26.6100   11.7950 N.pl3  38  ARG38       0.1354
     87  NH2        0.6380   26.4610   13.8090 N.pl3  38  ARG38       0.1354
     88  N         -8.2040   21.9800    5.5050 N.3    41  ASP41      -0.1239
     89  CA        -9.3790   22.8200    5.6530 C.3    41  ASP41       0.1674
     90  C        -10.6090   22.1000    5.1280 C.2    41  ASP41       0.2266
     91  O        -10.5490   21.5070    4.0540 O.2    41  ASP41      -0.2867
     92  CB        -9.1880   24.1490    4.9180 C.3    41  ASP41       0.1410
     93  CG       -10.1980   25.1970    5.3430 C.2    41  ASP41       0.3668
     94  OD1      -11.2900   25.2620    4.7400 O.co2  41  ASP41      -0.2456
     95  OD2       -9.8920   25.9650    6.2840 O.co2  41  ASP41      -0.2456
     96  N         12.9430   20.6750    1.7310 N.3    70  HIS70      -0.1241
     97  CA        11.7580   21.5050    1.5520 C.3    70  HIS70       0.1621
     98  C         11.5390   21.8200    0.0740 C.2    70  HIS70       0.2264
     99  O         10.4220   21.7340   -0.4320 O.2    70  HIS70      -0.2867
    100  CB        11.9120   22.8040    2.3440 C.3    70  HIS70       0.0745
    101  CG        10.6130   23.4730    2.6570 C.ar   70  HIS70       0.0817
    102  ND1       10.0440   23.4410    3.9080 N.ar   70  HIS70      -0.2268
    103  CD2        9.7670   24.1920    1.8790 C.ar   70  HIS70       0.1154
    104  CE1        8.9070   24.1050    3.8890 C.ar   70  HIS70       0.1986
    105  NE2        8.7140   24.5710    2.6730 N.ar   70  HIS70      -0.2212
    106  N          8.2620   20.5260   -2.5030 N.3    74  VAL74      -0.1245
    107  CA         7.5250   21.5330   -3.2550 C.3    74  VAL74       0.1561
    108  C          7.6630   21.2740   -4.7500 C.2    74  VAL74       0.2260
    109  O          6.6890   21.3710   -5.4980 O.2    74  VAL74      -0.2867
    110  CB         8.0080   22.9640   -2.9260 C.3    74  VAL74       0.0252
    111  CG1        7.2700   23.9990   -3.7650 C.3    74  VAL74       0.0019
    112  CG2        7.8270   23.2600   -1.4450 C.3    74  VAL74       0.0019
    113  N          5.2990   18.5440   -5.8980 N.3    77  ILE77      -0.1231
    114  CA         3.9130   18.9920   -5.9510 C.3    77  ILE77       0.1692
    115  C          3.6760   19.9660   -7.1040 C.2    77  ILE77       0.2591
    116  O          2.7040   19.8360   -7.8560 O.2    77  ILE77      -0.2718
    117  CB         3.5120   19.6550   -4.6190 C.3    77  ILE77       0.0266
    118  CG1        3.7530   18.6700   -3.4780 C.3    77  ILE77       0.0019
    119  CG2        2.0550   20.0910   -4.6600 C.3    77  ILE77       0.0020
    120  CD1        3.6700   19.2790   -2.1000 C.3    77  ILE77       0.0001
    121  N          4.5730   20.9310   -7.2450 N.am   78  ARG78      -0.1980
    122  CA         4.4560   21.9540   -8.2780 C.3    78  ARG78       0.1597
    123  C          4.5830   21.3480   -9.6740 C.2    78  ARG78       0.2287
    124  O          3.9420   21.8060  -10.6240 O.2    78  ARG78      -0.2864
    125  CB         5.5150   23.0360   -8.0650 C.3    78  ARG78       0.0334
    126  CG         5.2750   23.8820   -6.8180 C.3    78  ARG78       0.0492
    127  CD         4.0890   24.8170   -6.9950 C.3    78  ARG78       0.2205
    128  NE         3.7950   25.5860   -5.7810 N.pl3  78  ARG78      -0.0865
    129  CZ         4.2270   26.8320   -5.5610 C.cat  78  ARG78       0.5346
    130  NH1        5.0800   27.4060   -6.4020 N.pl3  78  ARG78       0.1354
    131  NH2        3.8380   27.4940   -4.4790 N.pl3  78  ARG78       0.1354
@<TRIPOS>BOND
     1   124   123    2
     2   123   122    1
     3   122   125    1
     4   122   121    1
     5   125   126    1
     6   116   115    2
     7    29    28    1
     8   121   115   am
     9   115   114    1
    10   127   126    1
    11   127   128    1
    12    26    28   ar
    13    26    24   ar
    14    28    27   ar
    15   130   129    1
    16   114   113    1
    17   114   117    1
    18   128   129    2
    19   129   131    1
    20   109   108    2
    21    24    23   ar
    22    27    25   ar
    23     4     3    2
    24   108   107    1
    25   119   117    1
    26   117   118    1
    27     1     2    1
    28     1     7    1
    29    17    16    2
    30    23    25   ar
    31    23    22    1
    32     3     2    1
    33     3     8   am
    34     2     5    1
    35    15    14    1
    36    15    16    1
    37    14    10   am
    38   111   110    1
    39    16    18   am
    40   118   120    1
    41    10     9    1
    42    10    11    2
    43     9     8    1
    44     9    12    1
    45   107   110    1
    46   107   106    1
    47     7     6    1
    48    22    19    1
    49    18    19    1
    50   110   112    1
    51    19    20    1
    52    13    12    1
    53     5     6    1
    54    20    21    2
    55    20    30   am
    56    43    44   ar
    57    43    41   ar
    58    44    42   ar
    59    30    31    1
    60    99    98    2
    61    98    97    1
    62    41    39   ar
    63    42    40   ar
    64    31    32    1
    65    39    40   ar
    66    39    38    1
    67    97    96    1
    68    97   100    1
    69    59    58    1
    70    34    32   am
    71    34    35    1
    72    32    33    2
    73   103   101   ar
    74   103   105   ar
    75   100   101    1
    76    37    36    2
    77   101   102   ar
    78   105   104   ar
    79    38    35    1
    80    58    60    1
    81    58    57    1
    82    35    36    1
    83    36    45   am
    84   104   102   ar
    85    57    54    1
    86    91    90    2
    87    45    46    1
    88    94    93   ar
    89    92    93    1
    90    92    89    1
    91    53    54    1
    92    53    47   am
    93    90    89    1
    94    46    47    1
    95    46    49    1
    96    54    55    1
    97    93    95   ar
    98    88    89    1
    99    47    48    2
   100    56    55    2
   101    55    61   am
   102    49    50    1
   103    52    50   am
   104    50    51    2
   105    76    75    1
   106    75    72    1
   107    61    62    1
   108    64    63    2
   109    63    62    1
   110    63    71   am
   111    62    65    1
   112    77    78    1
   113    72    71    1
   114    72    73    1
   115    78    81    1
   116    78    79    1
   117    81    82    1
   118    65    66    1
   119    73    74    2
   120    79    80    2
   121    66    68   ar
   122    66    67   ar
   123    82    83    1
   124    83    84    1
   125    68    70   ar
   126    86    85    1
   127    67    69   ar
   128    70    69   ar
   129    84    85    2
   130    85    87    1
