@<TRIPOS>MOLECULE
tmp/2m10A00.pdb
 90 86 0 0 0
SMALL
GASTEIGER

@<TRIPOS>ATOM
      1  N         -1.7520    5.0460    7.6100 N.3    21  ILE21      -0.1231
      2  CA        -2.5840    3.9690    7.1390 C.3    21  ILE21       0.1692
      3  C         -2.0200    2.7500    7.8490 C.2    21  ILE21       0.2592
      4  O         -1.0300    2.8850    8.5910 O.2    21  ILE21      -0.2718
      5  CB        -2.5240    3.8150    5.6050 C.3    21  ILE21       0.0266
      6  CG1       -2.5050    5.2300    4.9540 C.3    21  ILE21       0.0019
      7  CG2       -3.7310    2.9660    5.1140 C.3    21  ILE21       0.0020
      8  CD1       -2.6240    5.2150    3.4320 C.3    21  ILE21       0.0001
      9  N         -2.6160    1.5540    7.6790 N.am   22  CYS22      -0.1956
     10  CA        -2.0850    0.4000    8.3950 C.3    22  CYS22       0.1843
     11  C         -2.1010   -0.7270    7.4400 C.2    22  CYS22       0.2625
     12  O         -2.6610   -0.6340    6.3510 O.2    22  CYS22      -0.2714
     13  CB        -2.9990   -0.0440    9.5710 C.3    22  CYS22       0.0997
     14  SG        -3.1820    1.2230   10.8680 S.3    22  CYS22      -0.0797
     15  N         -1.3660   -1.7950    7.8040 N.am   23  VAL23      -0.1977
     16  CA        -1.0840   -2.8640    6.8990 C.3    23  VAL23       0.1596
     17  C         -0.8940   -4.0860    7.7460 C.2    23  VAL23       0.2287
     18  O         -0.9570   -4.0170    8.9740 O.2    23  VAL23      -0.2864
     19  CB         0.1890   -2.6470    6.0830 C.3    23  VAL23       0.0276
     20  CG1       -0.0840   -1.5620    5.0090 C.3    23  VAL23       0.0022
     21  CG2        1.3410   -2.2830    7.0460 C.3    23  VAL23       0.0022
     22  N         -4.6470   -3.3510    5.9000 N.3    39  LYS39      -0.1245
     23  CA        -5.2940   -3.8220    7.0960 C.3    39  LYS39       0.1561
     24  C         -6.3540   -2.8560    7.5330 C.2    39  LYS39       0.2260
     25  O         -7.4120   -3.2650    7.9950 O.2    39  LYS39      -0.2867
     26  CB        -4.2510   -3.9900    8.2190 C.3    39  LYS39       0.0271
     27  CG        -4.6130   -4.9720    9.3340 C.3    39  LYS39       0.0035
     28  CD        -5.1900   -4.3620   10.5880 C.3    39  LYS39       0.0206
     29  CE        -4.2280   -3.3670   11.2790 C.3    39  LYS39       0.1093
     30  NZ        -4.7100   -2.9530   12.6140 N.3    39  LYS39      -0.1314
     31  N          5.7070   -5.8820    7.8430 N.3    72  HIS72      -0.1226
     32  CA         4.5740   -4.9990    7.9520 C.3    72  HIS72       0.1752
     33  C          5.0440   -3.6730    8.4970 C.2    72  HIS72       0.2596
     34  O          4.6290   -2.6400    8.0230 O.2    72  HIS72      -0.2718
     35  CB         3.3640   -5.5470    8.7570 C.3    72  HIS72       0.0759
     36  CG         3.6550   -6.0880   10.1300 C.ar   72  HIS72       0.0818
     37  ND1        3.7520   -5.2940   11.2420 N.ar   72  HIS72      -0.2268
     38  CD2        3.7590   -7.3690   10.5430 C.ar   72  HIS72       0.1154
     39  CE1        3.9160   -6.0820   12.2990 C.ar   72  HIS72       0.1986
     40  NE2        3.9190   -7.3460   11.8920 N.ar   72  HIS72      -0.2212
     41  N          5.9570   -3.6660    9.4990 N.am   73  LYS73      -0.1966
     42  CA         6.5580   -2.4050    9.9520 C.3    73  LYS73       0.1728
     43  C          7.2770   -1.7020    8.7940 C.2    73  LYS73       0.2616
     44  O          7.0000   -0.5490    8.5030 O.2    73  LYS73      -0.2715
     45  CB         7.5430   -2.5900   11.1250 C.3    73  LYS73       0.0311
     46  CG         6.8430   -3.1140   12.3960 C.3    73  LYS73       0.0038
     47  CD         7.7020   -3.0670   13.6660 C.3    73  LYS73       0.0206
     48  CE         8.9580   -3.9550   13.6130 C.3    73  LYS73       0.1093
     49  NZ         9.6700   -3.9130   14.9000 N.3    73  LYS73      -0.1314
     50  N          8.2110   -2.3950    8.1110 N.am   74  GLN74      -0.1977
     51  CA         8.9360   -1.7980    6.9840 C.3    74  GLN74       0.1601
     52  C          7.9810   -1.2850    5.9250 C.2    74  GLN74       0.2287
     53  O          8.2440   -0.2590    5.3120 O.2    74  GLN74      -0.2864
     54  CB         9.8870   -2.7820    6.3480 C.3    74  GLN74       0.0394
     55  CG        11.0210   -3.1370    7.2930 C.3    74  GLN74       0.0908
     56  CD        12.0230   -1.9750    7.2780 C.2    74  GLN74       0.2608
     57  OE1       12.7770   -1.8000    6.3080 O.2    74  GLN74      -0.2717
     58  NE2       12.0330   -1.1480    8.3430 N.am   74  GLN74      -0.0878
     59  N          5.1030    0.2540    6.2760 N.3    76  VAL76      -0.1231
     60  CA         4.6370    1.5920    6.5510 C.3    76  VAL76       0.1692
     61  C          5.8270    2.5190    6.5400 C.2    76  VAL76       0.2592
     62  O          5.7090    3.6470    6.1080 O.2    76  VAL76      -0.2718
     63  CB         3.8290    1.7580    7.8300 C.3    76  VAL76       0.0266
     64  CG1        2.4300    1.1760    7.5760 C.3    76  VAL76       0.0020
     65  CG2        4.5470    1.0760    8.9970 C.3    76  VAL76       0.0020
     66  N          7.0320    2.0350    7.0190 N.am   77  CYS77      -0.1970
     67  CA         8.2420    2.9520    7.0460 C.3    77  CYS77       0.1712
     68  C          8.4300    3.4480    5.5820 C.2    77  CYS77       0.2296
     69  O          8.9280    4.4970    5.2970 O.2    77  CYS77      -0.2864
     70  CB         9.5440    2.1880    7.4720 C.3    77  CYS77       0.0983
     71  SG        11.0980    3.1600    7.2790 S.3    77  CYS77      -0.0798
     72  N          6.1090    5.9670    4.6090 N.3    80  ARG80      -0.1231
     73  CA         6.4410    7.2440    5.2400 C.3    80  ARG80       0.1694
     74  C          7.5070    7.9240    4.4150 C.2    80  ARG80       0.2592
     75  O          7.3180    9.0530    3.9900 O.2    80  ARG80      -0.2718
     76  CB         6.9700    7.1150    6.6970 C.3    80  ARG80       0.0321
     77  CG         5.9060    6.6420    7.7060 C.3    80  ARG80       0.0489
     78  CD         4.7270    7.6270    7.8640 C.3    80  ARG80       0.2205
     79  NE         3.7510    7.0410    8.8570 N.pl3  80  ARG80      -0.0865
     80  CZ         3.5320    7.6020   10.1130 C.cat  80  ARG80       0.5346
     81  NH1        4.2390    8.6970   10.5410 N.pl3  80  ARG80       0.1354
     82  NH2        2.6000    7.0470   10.9320 N.pl3  80  ARG80       0.1354
     83  N          8.6740    7.2400    4.2160 N.am   81  ASN81      -0.1974
     84  CA         9.8420    7.8190    3.4730 C.3    81  ASN81       0.1688
     85  C          9.5500    7.9780    1.9870 C.2    81  ASN81       0.2292
     86  O         10.3660    7.6000    1.1350 O.2    81  ASN81      -0.2864
     87  CB        11.1430    6.9770    3.5950 C.3    81  ASN81       0.1181
     88  CG        11.6120    7.0040    5.0410 C.2    81  ASN81       0.2629
     89  OD1       11.3240    7.9540    5.7840 O.2    81  ASN81      -0.2716
     90  ND2       12.3490    5.9590    5.4610 N.am   81  ASN81      -0.0877
@<TRIPOS>BOND
     1    86    85    2
     2    85    84    1
     3     8     6    1
     4    84    87    1
     5    84    83    1
     6    87    88    1
     7    75    74    2
     8    83    74   am
     9    74    73    1
    10    72    73    1
    11     6     5    1
    12    20    19    1
    13    88    90   am
    14    88    89    2
    15     7     5    1
    16    73    76    1
    17    69    68    2
    18    53    52    2
    19    68    67    1
    20     5     2    1
    21    22    23    1
    22    52    51    1
    23    19    16    1
    24    19    21    1
    25    62    61    2
    26    59    60    1
    27    57    56    2
    28    54    51    1
    29    54    55    1
    30    12    11    2
    31    61    60    1
    32    61    66   am
    33    60    63    1
    34    76    77    1
    35    16    17    1
    36    16    15    1
    37    51    50    1
    38    66    67    1
    39    67    70    1
    40    23    24    1
    41    23    26    1
    42     2     1    1
    43     2     3    1
    44    56    55    1
    45    56    58   am
    46    71    70    1
    47    11    15   am
    48    11    10    1
    49    24    25    2
    50    64    63    1
    51     9     3   am
    52     9    10    1
    53    77    78    1
    54    17    18    2
    55    63    65    1
    56    31    32    1
    57     3     4    2
    58    78    79    1
    59    32    33    1
    60    32    35    1
    61    34    33    2
    62    50    43   am
    63    26    27    1
    64    10    13    1
    65    33    41   am
    66    44    43    2
    67    35    36    1
    68    43    42    1
    69    79    80    2
    70    27    28    1
    71    41    42    1
    72    13    14    1
    73    42    45    1
    74    80    81    1
    75    80    82    1
    76    36    38   ar
    77    36    37   ar
    78    38    40   ar
    79    28    29    1
    80    45    46    1
    81    37    39   ar
    82    29    30    1
    83    40    39   ar
    84    46    47    1
    85    48    47    1
    86    48    49    1
