@<TRIPOS>MOLECULE
tmp/2m3gA00.pdb
 180 177 0 0 0
SMALL
GASTEIGER

@<TRIPOS>ATOM
      1  N         -5.5190   11.2100   -6.6200 N.3    76  TRP76      -0.1241
      2  CA        -6.6350   10.8140   -5.7740 C.3    76  TRP76       0.1605
      3  C         -6.4320    9.4030   -5.2570 C.2    76  TRP76       0.2264
      4  O         -7.3220    8.8180   -4.6390 O.2    76  TRP76      -0.2867
      5  CB        -7.9560   10.9010   -6.5290 C.3    76  TRP76       0.0550
      6  CG        -8.1770   12.2240   -7.1890 C.ar   76  TRP76       0.0003
      7  CD1       -7.8170   13.4550   -6.7180 C.ar   76  TRP76       0.0946
      8  CD2       -8.8190   12.4430   -8.4420 C.ar   76  TRP76       0.0152
      9  NE1       -8.1920   14.4270   -7.6140 N.ar   76  TRP76      -0.2442
     10  CE2       -8.8100   13.8300   -8.6800 C.ar   76  TRP76       0.0810
     11  CE3       -9.3970   11.5990   -9.3880 C.ar   76  TRP76       0.0012
     12  CZ2       -9.3580   14.3840   -9.8270 C.ar   76  TRP76       0.0191
     13  CZ3       -9.9410   12.1510  -10.5260 C.ar   76  TRP76       0.0001
     14  CH2       -9.9180   13.5310  -10.7360 C.ar   76  TRP76       0.0015
     15  N         -3.6300   11.0300   -1.8520 N.3    79  THR79      -0.1203
     16  CA        -4.2120   11.9620   -0.8950 C.3    79  THR79       0.1994
     17  C         -5.4600   11.3960   -0.2290 C.2    79  THR79       0.2618
     18  O         -5.5830   11.4290    0.9920 O.2    79  THR79      -0.2717
     19  CB        -4.5750   13.3020   -1.5620 C.3    79  THR79       0.1784
     20  OG1       -5.4780   13.0820   -2.6520 O.3    79  THR79      -0.2211
     21  CG2       -3.3280   14.0090   -2.0650 C.3    79  THR79       0.0376
     22  N         -6.3820   10.8800   -1.0350 N.am   80  THR80      -0.1952
     23  CA        -7.6400   10.3330   -0.5230 C.3    80  THR80       0.1897
     24  C         -7.4350    9.3180    0.6100 C.2    80  THR80       0.2313
     25  O         -8.0150    9.4810    1.6840 O.2    80  THR80      -0.2863
     26  CB        -8.4720    9.6880   -1.6510 C.3    80  THR80       0.1794
     27  OG1       -8.6980   10.6370   -2.6990 O.3    80  THR80      -0.2208
     28  CG2       -9.8080    9.1860   -1.1240 C.3    80  THR80       0.0378
     29  N         -6.4800   10.9810    3.5430 N.3    83  LEU83      -0.1245
     30  CA        -7.5070   11.9030    4.0050 C.3    83  LEU83       0.1561
     31  C         -8.4750   11.1770    4.9260 C.2    83  LEU83       0.2260
     32  O         -9.0380   11.7640    5.8510 O.2    83  LEU83      -0.2867
     33  CB        -8.2650   12.5090    2.8200 C.3    83  LEU83       0.0270
     34  CG        -7.9580   13.9810    2.5290 C.3    83  LEU83       0.0019
     35  CD1       -8.2840   14.8510    3.7340 C.3    83  LEU83       0.0001
     36  CD2       -6.5010   14.1510    2.1220 C.3    83  LEU83       0.0001
     37  N        -13.8520    2.4170   -3.0600 N.3   112  VAL112     -0.1231
     38  CA       -14.2420    3.7050   -3.6240 C.3   112  VAL112      0.1692
     39  C        -13.1850    4.2380   -4.5910 C.2   112  VAL112      0.2591
     40  O        -13.5060    4.6430   -5.7080 O.2   112  VAL112     -0.2718
     41  CB       -14.4970    4.7470   -2.5160 C.3   112  VAL112      0.0266
     42  CG1      -14.8450    6.1020   -3.1170 C.3   112  VAL112      0.0020
     43  CG2      -15.6010    4.2710   -1.5820 C.3   112  VAL112      0.0020
     44  N        -11.9250    4.2380   -4.1570 N.am  113  ILE113     -0.1980
     45  CA       -10.8300    4.7200   -4.9910 C.3   113  ILE113      0.1595
     46  C        -10.7560    3.9370   -6.2960 C.2   113  ILE113      0.2287
     47  O        -10.4970    4.5030   -7.3580 O.2   113  ILE113     -0.2864
     48  CB        -9.4760    4.6180   -4.2630 C.3   113  ILE113      0.0276
     49  CG1       -9.5400    5.3440   -2.9180 C.3   113  ILE113      0.0022
     50  CG2       -8.3650    5.1930   -5.1300 C.3   113  ILE113      0.0022
     51  CD1       -8.3080    5.1480   -2.0620 C.3   113  ILE113      0.0001
     52  N        -13.1040    2.7050   -7.9440 N.3   115  SER115     -0.1202
     53  CA       -14.1510    3.1940   -8.8290 C.3   115  SER115      0.2020
     54  C        -13.6270    4.3280   -9.6980 C.2   115  SER115      0.2619
     55  O        -13.6890    4.2610  -10.9260 O.2   115  SER115     -0.2717
     56  CB       -15.3550    3.6680   -8.0150 C.3   115  SER115      0.2103
     57  OG       -15.8070    2.6490   -7.1420 O.3   115  SER115     -0.2182
     58  N        -13.1090    5.3710   -9.0530 N.am  116  GLY116     -0.1956
     59  CA       -12.5720    6.5030   -9.7830 C.3   116  GLY116      0.1869
     60  C        -11.3360    6.1400  -10.5770 C.2   116  GLY116      0.2309
     61  O        -10.9540    6.8460  -11.5090 O.2   116  GLY116     -0.2863
     62  N        -12.8970    4.7430  -13.6400 N.3   119  ALA119     -0.1245
     63  CA       -13.8710    5.7420  -14.0750 C.3   119  ALA119      0.1562
     64  C        -13.2570    6.7010  -15.0890 C.2   119  ALA119      0.2260
     65  O        -13.9130    7.1130  -16.0460 O.2   119  ALA119     -0.2867
     66  CB       -14.4030    6.5210  -12.8820 C.3   119  ALA119      0.0290
     67  N        -19.6270    3.4410  -13.0390 N.3   132  TYR132     -0.1241
     68  CA       -20.0110    4.5480  -12.1750 C.3   132  TYR132      0.1605
     69  C        -20.9470    4.0730  -11.0650 C.2   132  TYR132      0.2264
     70  O        -20.7000    4.3200   -9.8840 O.2   132  TYR132     -0.2867
     71  CB       -20.6870    5.6550  -12.9880 C.3   132  TYR132      0.0534
     72  CG       -21.3870    6.6890  -12.1350 C.ar  132  TYR132     -0.0201
     73  CD1      -20.6700    7.4910  -11.2560 C.ar  132  TYR132     -0.0009
     74  CD2      -22.7640    6.8590  -12.2010 C.ar  132  TYR132     -0.0009
     75  CE1      -21.3020    8.4320  -10.4670 C.ar  132  TYR132      0.0417
     76  CE2      -23.4050    7.8000  -11.4180 C.ar  132  TYR132      0.0417
     77  CZ       -22.6690    8.5830  -10.5520 C.ar  132  TYR132      0.1957
     78  OH       -23.3000    9.5170   -9.7650 O.3   132  TYR132     -0.2866
     79  N        -19.3900    2.3850   -8.1570 N.3   135  GLY135     -0.1210
     80  CA       -18.7550    3.2100   -7.1440 C.3   135  GLY135      0.1956
     81  C        -19.7330    3.7260   -6.1080 C.2   135  GLY135      0.2611
     82  O        -19.5260    3.5490   -4.9070 O.2   135  GLY135     -0.2717
     83  N        -20.8010    4.3720   -6.5700 N.am  136  VAL136     -0.1979
     84  CA       -21.8110    4.9130   -5.6710 C.3   136  VAL136      0.1595
     85  C        -22.4940    3.8050   -4.8780 C.2   136  VAL136      0.2287
     86  O        -22.9120    4.0110   -3.7400 O.2   136  VAL136     -0.2864
     87  CB       -22.8770    5.7200   -6.4380 C.3   136  VAL136      0.0276
     88  CG1      -22.2530    6.9400   -7.0940 C.3   136  VAL136      0.0022
     89  CG2      -23.5690    4.8470   -7.4740 C.3   136  VAL136      0.0022
     90  N        -20.6780    2.9620   -1.8980 N.3   139  PHE139     -0.1241
     91  CA       -20.6910    4.1680   -1.0810 C.3   139  PHE139      0.1605
     92  C        -22.0030    4.2920   -0.3120 C.2   139  PHE139      0.2264
     93  O        -22.0430    4.8750    0.7720 O.2   139  PHE139     -0.2867
     94  CB       -20.4810    5.4010   -1.9620 C.3   139  PHE139      0.0534
     95  CG       -20.5190    6.7010   -1.2080 C.ar  139  PHE139     -0.0203
     96  CD1      -19.4240    7.1220   -0.4740 C.ar  139  PHE139     -0.0042
     97  CD2      -21.6520    7.4980   -1.2350 C.ar  139  PHE139     -0.0042
     98  CE1      -19.4560    8.3180    0.2200 C.ar  139  PHE139     -0.0003
     99  CE2      -21.6910    8.6940   -0.5430 C.ar  139  PHE139     -0.0003
    100  CZ       -20.5910    9.1060    0.1840 C.ar  139  PHE139     -0.0000
    101  N        -17.4350   13.8210   -0.0650 N.3   176  TRP176     -0.1241
    102  CA       -17.3750   12.5350   -0.7510 C.3   176  TRP176      0.1605
    103  C        -18.5310   12.3890   -1.7310 C.2   176  TRP176      0.2264
    104  O        -18.4170   11.6880   -2.7350 O.2   176  TRP176     -0.2867
    105  CB       -17.4060   11.3940    0.2650 C.3   176  TRP176      0.0550
    106  CG       -16.1230   10.6230    0.3310 C.ar  176  TRP176      0.0003
    107  CD1      -15.9620    9.2830    0.1270 C.ar  176  TRP176      0.0946
    108  CD2      -14.8220   11.1460    0.6190 C.ar  176  TRP176      0.0152
    109  NE1      -14.6390    8.9390    0.2730 N.ar  176  TRP176     -0.2442
    110  CE2      -13.9190   10.0660    0.5750 C.ar  176  TRP176      0.0810
    111  CE3      -14.3300   12.4220    0.9120 C.ar  176  TRP176      0.0012
    112  CZ2      -12.5560   10.2240    0.8120 C.ar  176  TRP176      0.0191
    113  CZ3      -12.9770   12.5780    1.1460 C.ar  176  TRP176      0.0001
    114  CH2      -12.1040   11.4830    1.0950 C.ar  176  TRP176      0.0015
    115  N        -18.2300   14.9480   -5.3310 N.3   179  TYR179     -0.1228
    116  CA       -17.5990   14.4670   -6.5580 C.3   179  TYR179      0.1721
    117  C        -18.5760   13.6750   -7.4350 C.2   179  TYR179      0.2437
    118  O        -18.7380   13.9910   -8.6120 O.2   179  TYR179     -0.2733
    119  CB       -16.3630   13.6250   -6.2400 C.3   179  TYR179      0.0547
    120  CG       -15.1580   14.4510   -5.8570 C.ar  179  TYR179     -0.0200
    121  CD1      -15.0180   14.9500   -4.5690 C.ar  179  TYR179     -0.0009
    122  CD2      -14.1600   14.7290   -6.7810 C.ar  179  TYR179     -0.0009
    123  CE1      -13.9160   15.7050   -4.2130 C.ar  179  TYR179      0.0417
    124  CE2      -13.0550   15.4830   -6.4330 C.ar  179  TYR179      0.0417
    125  CZ       -12.9390   15.9690   -5.1470 C.ar  179  TYR179      0.1957
    126  OH       -11.8410   16.7200   -4.7970 O.3   179  TYR179     -0.2866
    127  N        -19.2380   12.6300   -6.9000 N.am  180  PRO180     -0.2729
    128  CA       -20.1850   11.8400   -7.6900 C.3   180  PRO180      0.1401
    129  C        -21.2910   12.7000   -8.3050 C.2   180  PRO180      0.2269
    130  O        -21.8920   12.3190   -9.3100 O.2   180  PRO180     -0.2865
    131  CB       -20.7630   10.8260   -6.6960 C.3   180  PRO180      0.0296
    132  CG       -20.3720   11.3180   -5.3420 C.3   180  PRO180      0.0237
    133  CD       -19.1160   12.1220   -5.5240 C.3   180  PRO180      0.0939
    134  N        -20.0690   14.0330  -11.3090 N.3   183  TRP183     -0.1241
    135  CA       -19.8270   12.8180  -12.0740 C.3   183  TRP183      0.1605
    136  C        -21.0990   12.3260  -12.7680 C.2   183  TRP183      0.2264
    137  O        -21.0380   11.4550  -13.6340 O.2   183  TRP183     -0.2867
    138  CB       -19.2890   11.7310  -11.1390 C.3   183  TRP183      0.0550
    139  CG       -18.1260   10.9650  -11.6930 C.ar  183  TRP183      0.0003
    140  CD1      -17.9350    9.6160  -11.6300 C.ar  183  TRP183      0.0946
    141  CD2      -16.9870   11.5000  -12.3810 C.ar  183  TRP183      0.0152
    142  NE1      -16.7550    9.2760  -12.2400 N.ar  183  TRP183     -0.2442
    143  CE2      -16.1550   10.4150  -12.7090 C.ar  183  TRP183      0.0810
    144  CE3      -16.5930   12.7880  -12.7550 C.ar  183  TRP183      0.0012
    145  CZ2      -14.9530   10.5780  -13.3920 C.ar  183  TRP183      0.0191
    146  CZ3      -15.4010   12.9480  -13.4330 C.ar  183  TRP183      0.0001
    147  CH2      -14.5930   11.8490  -13.7460 C.ar  183  TRP183      0.0015
    148  N        -12.6950   20.4860  -11.4600 N.3   202  PHE202     -0.1241
    149  CA       -12.0850   19.3920  -10.7140 C.3   202  PHE202      0.1605
    150  C        -10.7720   19.8370  -10.0810 C.2   202  PHE202      0.2264
    151  O        -10.0780   19.0460   -9.4470 O.2   202  PHE202     -0.2867
    152  CB       -11.8490   18.1850  -11.6210 C.3   202  PHE202      0.0534
    153  CG       -12.7760   17.0410  -11.3360 C.ar  202  PHE202     -0.0203
    154  CD1      -14.0260   16.9790  -11.9290 C.ar  202  PHE202     -0.0042
    155  CD2      -12.3970   16.0270  -10.4730 C.ar  202  PHE202     -0.0042
    156  CE1      -14.8820   15.9300  -11.6640 C.ar  202  PHE202     -0.0003
    157  CE2      -13.2480   14.9720  -10.2050 C.ar  202  PHE202     -0.0003
    158  CZ       -14.4930   14.9240  -10.8010 C.ar  202  PHE202     -0.0000
    159  N        -11.0100   19.9070   -5.2470 N.3   206  PRO206     -0.2116
    160  CA       -10.0190   19.2990   -4.3530 C.3   206  PRO206      0.1372
    161  C         -9.4060   20.3330   -3.4240 C.2   206  PRO206      0.2244
    162  O         -9.2130   20.0770   -2.2360 O.2   206  PRO206     -0.2868
    163  CB        -8.9560   18.7390   -5.3050 C.3   206  PRO206      0.0268
    164  CG        -9.6610   18.5800   -6.6040 C.3   206  PRO206      0.0207
    165  CD       -10.6560   19.7020   -6.6640 C.3   206  PRO206      0.0892
    166  N        -11.6550   20.8470   -0.8800 N.3   209  SER209     -0.1202
    167  CA       -11.7950   19.6430   -0.0700 C.3   209  SER209      0.2020
    168  C        -10.6430   19.5280    0.9220 C.2   209  SER209      0.2618
    169  O        -10.8240   19.0630    2.0480 O.2   209  SER209     -0.2717
    170  CB       -11.8360   18.4040   -0.9680 C.3   209  SER209      0.2103
    171  OG       -11.8980   17.2160   -0.1970 O.3   209  SER209     -0.2182
    172  N         -9.4590   19.9550    0.4930 N.am  210  LYS210     -0.1979
    173  CA        -8.2690   19.8990    1.3350 C.3   210  LYS210      0.1596
    174  C         -8.2920   20.9930    2.3990 C.2   210  LYS210      0.2287
    175  O         -8.0220   20.7350    3.5720 O.2   210  LYS210     -0.2864
    176  CB        -7.0050   20.0320    0.4810 C.3   210  LYS210      0.0298
    177  CG        -6.3750   18.6990    0.0990 C.3   210  LYS210      0.0038
    178  CD        -7.1880   17.9680   -0.9580 C.3   210  LYS210      0.0206
    179  CE        -6.5120   16.6670   -1.3690 C.3   210  LYS210      0.1093
    180  NZ        -7.2900   15.9510   -2.4200 N.3   210  LYS210     -0.1314
@<TRIPOS>BOND
     1    65    64    2
     2    64    63    1
     3    63    62    1
     4    63    66    1
     5   147   146   ar
     6   147   145   ar
     7   137   136    2
     8   146   144   ar
     9   145   143   ar
    10    67    68    1
    11    71    68    1
    12    71    72    1
    13   136   135    1
    14   144   141   ar
    15   143   141   ar
    16   143   142   ar
    17   141   139   ar
    18   142   140   ar
    19    74    72   ar
    20    74    76   ar
    21    68    69    1
    22    72    73   ar
    23   135   134    1
    24   135   138    1
    25   154   156   ar
    26   154   153   ar
    27   139   140   ar
    28   139   138    1
    29   156   158   ar
    30   152   153    1
    31   152   149    1
    32    61    60    2
    33   148   149    1
    34    76    77   ar
    35   153   155   ar
    36    73    75   ar
    37    69    70    2
    38    55    54    2
    39   158   157   ar
    40    14    13   ar
    41    14    12   ar
    42   149   150    1
    43    60    59    1
    44    77    75   ar
    45    77    78    1
    46    13    11   ar
    47   155   157   ar
    48   150   151    2
    49    12    10   ar
    50    59    58    1
    51    54    58   am
    52    54    53    1
    53    11     8   ar
    54   130   129    2
    55    53    56    1
    56    53    52    1
    57    10     8   ar
    58    10     9   ar
    59   118   117    2
    60     8     6   ar
    61   129   128    1
    62    79    80    1
    63    56    57    1
    64   128   127    1
    65   128   131    1
    66     9     7   ar
    67    89    87    1
    68   117   127   am
    69   117   116    1
    70    47    46    2
    71     6     7   ar
    72     6     5    1
    73    80    81    1
    74    88    87    1
    75   127   133    1
    76   122   124   ar
    77   122   120   ar
    78   131   132    1
    79   165   164    1
    80   165   159    1
    81     1     2    1
    82   164   163    1
    83    83    81   am
    84    83    84    1
    85   116   119    1
    86   116   115    1
    87     5     2    1
    88    87    84    1
    89   124   125   ar
    90    46    45    1
    91   119   120    1
    92    81    82    2
    93   120   121   ar
    94     2     3    1
    95    40    39    2
    96    84    85    1
    97   133   132    1
    98   163   160    1
    99     3     4    2
   100   159   160    1
   101   125   126    1
   102   125   123   ar
   103    50    48    1
   104    45    48    1
   105    45    44    1
   106    85    86    2
   107    39    44   am
   108    39    38    1
   109   121   123   ar
   110   160   161    1
   111    48    49    1
   112    38    37    1
   113    38    41    1
   114   161   162    2
   115    42    41    1
   116    49    51    1
   117   104   103    2
   118    27    26    1
   119    20    19    1
   120    41    43    1
   121   180   179    1
   122    21    19    1
   123    94    95    1
   124    94    91    1
   125    90    91    1
   126    15    16    1
   127   103   102    1
   128    26    28    1
   129    26    23    1
   130    19    16    1
   131   179   178    1
   132    97    95   ar
   133    97    99   ar
   134    95    96   ar
   135    91    92    1
   136    22    23    1
   137    22    17   am
   138   170   171    1
   139   170   167    1
   140   178   177    1
   141    16    17    1
   142   166   167    1
   143   102   101    1
   144   102   105    1
   145    99   100   ar
   146    23    24    1
   147    96    98   ar
   148    92    93    2
   149    17    18    2
   150   167   168    1
   151   177   176    1
   152   107   109   ar
   153   107   106   ar
   154   100    98   ar
   155   105   106    1
   156   109   110   ar
   157   106   108   ar
   158   176   173    1
   159   172   168   am
   160   172   173    1
   161   110   108   ar
   162   110   112   ar
   163    24    25    2
   164   108   111   ar
   165   112   114   ar
   166   111   113   ar
   167   168   169    2
   168   114   113   ar
   169   173   174    1
   170    36    34    1
   171   174   175    2
   172    34    33    1
   173    34    35    1
   174    33    30    1
   175    29    30    1
   176    30    31    1
   177    31    32    2
