@<TRIPOS>MOLECULE
tmp/2m3mA00.pdb
 164 158 0 0 0
SMALL
GASTEIGER

@<TRIPOS>ATOM
      1  N         18.1550   -4.3080   -4.4950 N.3     7  LYS7       -0.1245
      2  CA        19.1580   -4.2310   -3.4580 C.3     7  LYS7        0.1561
      3  C         20.5420   -4.2940   -4.0760 C.2     7  LYS7        0.2260
      4  O         20.7670   -5.0550   -4.9840 O.2     7  LYS7       -0.2867
      5  CB        18.9200   -5.3400   -2.4320 C.3     7  LYS7        0.0271
      6  CG        19.7070   -5.2170   -1.1320 C.3     7  LYS7        0.0035
      7  CD        21.0830   -5.8570   -1.1740 C.3     7  LYS7        0.0206
      8  CE        21.6790   -5.9270    0.2290 C.3     7  LYS7        0.1093
      9  NZ        20.8190   -6.7250    1.1430 N.3     7  LYS7       -0.1314
     10  N         24.8110   -0.5330   -1.6700 N.3    10  LYS10      -0.1231
     11  CA        24.4700    0.4560   -0.6520 C.3    10  LYS10       0.1693
     12  C         23.2880   -0.0680    0.1510 C.2    10  LYS10       0.2593
     13  O         22.6710    0.6520    0.9400 O.2    10  LYS10      -0.2718
     14  CB        24.1590    1.8370   -1.2980 C.3    10  LYS10       0.0285
     15  CG        25.2830    2.3220   -2.2210 C.3    10  LYS10       0.0035
     16  CD        25.0670    3.7270   -2.8360 C.3    10  LYS10       0.0206
     17  CE        25.4660    4.8980   -1.9050 C.3    10  LYS10       0.1093
     18  NZ        24.5170    5.1590   -0.8020 N.3    10  LYS10      -0.1314
     19  N         22.9900   -1.3330   -0.0800 N.am   11  GLY11      -0.1942
     20  CA        21.9040   -2.0110    0.5730 C.3    11  GLY11       0.2014
     21  C         20.6330   -1.7340   -0.1410 C.2    11  GLY11       0.2639
     22  O         20.5760   -1.8230   -1.3800 O.2    11  GLY11      -0.2714
     23  N         19.6180   -1.4140    0.6090 N.am   12  LEU12      -0.1963
     24  CA        18.3620   -0.9700    0.0350 C.3    12  LEU12       0.1728
     25  C         18.4080    0.5460   -0.0190 C.2    12  LEU12       0.2617
     26  O         17.6760    1.2130   -0.7830 O.2    12  LEU12      -0.2715
     27  CB        17.1410   -1.4390    0.8460 C.3    12  LEU12       0.0311
     28  CG        16.8680   -2.9580    0.9470 C.3    12  LEU12       0.0022
     29  CD1       17.9280   -3.6920    1.7540 C.3    12  LEU12       0.0001
     30  CD2       15.4940   -3.2080    1.5340 C.3    12  LEU12       0.0001
     31  N         19.3000    1.0820    0.7910 N.am   13  GLY13      -0.1940
     32  CA        19.5660    2.4830    0.8000 C.3    13  GLY13       0.2014
     33  C         18.6490    3.3010    1.6710 C.2    13  GLY13       0.2639
     34  O         18.2400    4.3840    1.2810 O.2    13  GLY13      -0.2714
     35  N         18.3130    2.7990    2.8270 N.am   14  PHE14      -0.1959
     36  CA        17.5520    3.5750    3.7940 C.3    14  PHE14       0.1771
     37  C         17.8100    3.0670    5.1950 C.2    14  PHE14       0.2620
     38  O         18.4170    2.0110    5.3650 O.2    14  PHE14      -0.2715
     39  CB        16.0390    3.6580    3.4610 C.3    14  PHE14       0.0574
     40  CG        15.2840    2.3620    3.4440 C.ar   14  PHE14      -0.0200
     41  CD1       15.3150    1.5400    2.3390 C.ar   14  PHE14      -0.0042
     42  CD2       14.5200    1.9850    4.5250 C.ar   14  PHE14      -0.0042
     43  CE1       14.6010    0.3660    2.3160 C.ar   14  PHE14      -0.0003
     44  CE2       13.8030    0.8130    4.5020 C.ar   14  PHE14      -0.0003
     45  CZ        13.8450    0.0040    3.3980 C.ar   14  PHE14      -0.0000
     46  N         17.3920    3.8150    6.1820 N.am   15  SER15      -0.1936
     47  CA        17.5810    3.4350    7.5500 C.3    15  SER15       0.2055
     48  C         16.2360    3.3520    8.2420 C.2    15  SER15       0.2643
     49  O         15.3950    4.2640    8.1130 O.2    15  SER15      -0.2714
     50  CB        18.4600    4.4380    8.2610 C.3    15  SER15       0.2130
     51  OG        19.5450    4.8290    7.4260 O.3    15  SER15      -0.2179
     52  N         16.0240    2.2940    8.9540 N.am   16  ILE16      -0.1963
     53  CA        14.7780    2.0830    9.6380 C.3    16  ILE16       0.1727
     54  C         14.9690    2.1160   11.1210 C.2    16  ILE16       0.2616
     55  O         16.0810    1.9150   11.6080 O.2    16  ILE16      -0.2715
     56  CB        14.1100    0.7480    9.2400 C.3    16  ILE16       0.0290
     57  CG1       15.1140   -0.4310    9.3250 C.3    16  ILE16       0.0022
     58  CG2       13.5050    0.8610    7.8600 C.3    16  ILE16       0.0023
     59  CD1       14.4860   -1.7840    9.0710 C.3    16  ILE16       0.0001
     60  N         13.9070    2.4440   11.8050 N.am   17  ALA17      -0.1977
     61  CA        13.8320    2.4230   13.2320 C.3    17  ALA17       0.1597
     62  C         12.4140    2.1130   13.6160 C.2    17  ALA17       0.2287
     63  O         11.4830    2.8380   13.2550 O.2    17  ALA17      -0.2864
     64  CB        14.2670    3.7420   13.8490 C.3    17  ALA17       0.0319
     65  N          9.7590   -3.7460   18.3970 N.3    20  VAL20      -0.1231
     66  CA         9.5330   -3.9080   19.8290 C.3    20  VAL20       0.1692
     67  C         10.5660   -3.1100   20.6420 C.2    20  VAL20       0.2593
     68  O         11.7580   -3.4580   20.7030 O.2    20  VAL20      -0.2718
     69  CB         9.5560   -5.4080   20.2570 C.3    20  VAL20       0.0266
     70  CG1        9.3160   -5.5580   21.7580 C.3    20  VAL20       0.0020
     71  CG2        8.5140   -6.2050   19.4810 C.3    20  VAL20       0.0020
     72  N         10.1110   -1.9990   21.1820 N.am   21  GLY21      -0.1942
     73  CA        10.9420   -1.1570   21.9950 C.3    21  GLY21       0.2014
     74  C         11.5730   -0.0090   21.2220 C.2    21  GLY21       0.2638
     75  O         12.0340    0.9590   21.8300 O.2    21  GLY21      -0.2714
     76  N         11.6410   -0.1290   19.9020 N.am   22  ASN22      -0.1972
     77  CA        12.2090    0.9330   19.0530 C.3    22  ASN22       0.1688
     78  C         11.1020    1.6400   18.2820 C.2    22  ASN22       0.2292
     79  O         11.3480    2.2310   17.2440 O.2    22  ASN22      -0.2864
     80  CB        13.2850    0.3890   18.0750 C.3    22  ASN22       0.1181
     81  CG        14.1560    1.5250   17.4970 C.2    22  ASN22       0.2629
     82  OD1       14.2830    2.5640   18.1110 O.2    22  ASN22      -0.2716
     83  ND2       14.8400    1.2990   16.4080 N.am   22  ASN22      -0.0877
     84  N         13.2920    5.9270    8.9660 N.3    34  THR34      -0.1203
     85  CA        13.7140    7.0930    9.7020 C.3    34  THR34       0.1994
     86  C         14.6870    7.9470    8.8810 C.2    34  THR34       0.2617
     87  O         14.8070    9.1490    9.0870 O.2    34  THR34      -0.2717
     88  CB        14.3370    6.6280   11.0260 C.3    34  THR34       0.1784
     89  OG1       13.3630    5.8100   11.6920 O.3    34  THR34      -0.2211
     90  CG2       14.7230    7.7980   11.9320 C.3    34  THR34       0.0376
     91  N         15.3500    7.3270    7.9370 N.am   35  LYS35      -0.1979
     92  CA        16.3030    8.0090    7.0800 C.3    35  LYS35       0.1596
     93  C         16.3350    7.2910    5.7580 C.2    35  LYS35       0.2287
     94  O         15.9790    6.1190    5.6920 O.2    35  LYS35      -0.2864
     95  CB        17.7230    7.9880    7.7090 C.3    35  LYS35       0.0298
     96  CG        17.9050    8.8440    8.9610 C.3    35  LYS35       0.0038
     97  CD        19.2440    8.5900    9.6410 C.3    35  LYS35       0.0206
     98  CE        19.3640    9.3940   10.9340 C.3    35  LYS35       0.1093
     99  NZ        20.6000    9.0660   11.6920 N.3    35  LYS35      -0.1314
    100  N         19.0030    6.7930    2.4530 N.3    37  ILE37      -0.1245
    101  CA        20.4010    6.9590    2.0780 C.3    37  ILE37       0.1561
    102  C         20.5340    7.4380    0.6210 C.2    37  ILE37       0.2260
    103  O         19.7800    6.9900   -0.2780 O.2    37  ILE37      -0.2867
    104  CB        21.1720    5.6140    2.3190 C.3    37  ILE37       0.0252
    105  CG1       21.0820    5.1940    3.8020 C.3    37  ILE37       0.0019
    106  CG2       22.6230    5.6740    1.8740 C.3    37  ILE37       0.0019
    107  CD1       21.6630    6.1990    4.7880 C.3    37  ILE37       0.0001
    108  N         11.1080   -7.4630   16.6320 N.3    66  THR66      -0.1203
    109  CA        12.2280   -6.7710   17.2280 C.3    66  THR66       0.1994
    110  C         12.9910   -6.0330   16.1250 C.2    66  THR66       0.2618
    111  O         13.1130   -6.5470   15.0170 O.2    66  THR66      -0.2717
    112  CB        13.1700   -7.7670   17.8910 C.3    66  THR66       0.1784
    113  OG1       12.3970   -8.7990   18.5140 O.3    66  THR66      -0.2211
    114  CG2       14.0090   -7.0750   18.9630 C.3    66  THR66       0.0376
    115  N         13.5330   -4.8550   16.4380 N.am   67  HIS67      -0.1961
    116  CA        14.2140   -4.0260   15.4230 C.3    67  HIS67       0.1787
    117  C         15.2740   -4.8270   14.6590 C.2    67  HIS67       0.2620
    118  O         15.2450   -4.8750   13.4480 O.2    67  HIS67      -0.2715
    119  CB        14.8230   -2.7210   16.0100 C.3    67  HIS67       0.0785
    120  CG        15.3230   -1.7800   14.9420 C.ar   67  HIS67       0.0821
    121  ND1       16.4600   -1.0240   15.0440 N.ar   67  HIS67      -0.2267
    122  CD2       14.7910   -1.4780   13.7370 C.ar   67  HIS67       0.1154
    123  CE1       16.5830   -0.3100   13.9250 C.ar   67  HIS67       0.1986
    124  NE2       15.5900   -0.5530   13.1070 N.ar   67  HIS67      -0.2212
    125  N         16.1400   -5.5210   15.3800 N.am   68  GLU68      -0.1977
    126  CA        17.1960   -6.3070   14.7460 C.3    68  GLU68       0.1602
    127  C         16.6290   -7.4620   13.9240 C.2    68  GLU68       0.2287
    128  O         17.1820   -7.8330   12.8820 O.2    68  GLU68      -0.2864
    129  CB        18.2030   -6.8060   15.7800 C.3    68  GLU68       0.0415
    130  CG        19.2570   -7.7390   15.2110 C.3    68  GLU68       0.1163
    131  CD        20.3480   -8.0550   16.1780 C.2    68  GLU68       0.3649
    132  OE1       20.0820   -8.5420   17.2700 O.co2  68  GLU68      -0.2457
    133  OE2       21.5300   -7.8340   15.8320 O.co2  68  GLU68      -0.2457
    134  N         15.4130   -5.7540   10.7740 N.3    71  VAL71      -0.1231
    135  CA        16.5470   -5.3140    9.9630 C.3    71  VAL71       0.1692
    136  C         17.2320   -6.4900    9.2830 C.2    71  VAL71       0.2592
    137  O         17.6130   -6.4010    8.1320 O.2    71  VAL71      -0.2718
    138  CB        17.5690   -4.4560   10.7620 C.3    71  VAL71       0.0266
    139  CG1       18.6620   -3.9270    9.8590 C.3    71  VAL71       0.0020
    140  CG2       16.8510   -3.3080   11.4290 C.3    71  VAL71       0.0020
    141  N         17.3120   -7.6080    9.9750 N.am   72  THR72      -0.1953
    142  CA        17.8930   -8.8180    9.4170 C.3    72  THR72       0.1897
    143  C         17.0800   -9.3150    8.1930 C.2    72  THR72       0.2313
    144  O         17.6630   -9.8030    7.2080 O.2    72  THR72      -0.2863
    145  CB        18.0010   -9.9220   10.5080 C.3    72  THR72       0.1794
    146  OG1       18.8230   -9.4420   11.5790 O.3    72  THR72      -0.2208
    147  CG2       18.6060  -11.2080    9.9650 C.3    72  THR72       0.0378
    148  N         15.4020   -7.3710    6.1310 N.3    74  LEU74      -0.1231
    149  CA        15.7080   -6.4790    5.0170 C.3    74  LEU74       0.1693
    150  C         17.1440   -6.6620    4.5660 C.2    74  LEU74       0.2591
    151  O         17.4710   -6.4240    3.4110 O.2    74  LEU74      -0.2718
    152  CB        15.4530   -4.9810    5.3040 C.3    74  LEU74       0.0284
    153  CG        14.0140   -4.5370    5.5930 C.3    74  LEU74       0.0019
    154  CD1       13.6420   -4.7410    7.0320 C.3    74  LEU74       0.0001
    155  CD2       13.7830   -3.1030    5.1690 C.3    74  LEU74       0.0001
    156  N         18.0090   -7.0710    5.4740 N.am   75  LYS75      -0.1980
    157  CA        19.3890   -7.2850    5.1270 C.3    75  LYS75       0.1596
    158  C         19.5930   -8.5020    4.2640 C.2    75  LYS75       0.2287
    159  O         20.4030   -8.4690    3.3210 O.2    75  LYS75      -0.2864
    160  CB        20.3150   -7.2690    6.3300 C.3    75  LYS75       0.0298
    161  CG        20.3830   -5.8960    6.9470 C.3    75  LYS75       0.0038
    162  CD        21.5240   -5.7430    7.9030 C.3    75  LYS75       0.0206
    163  CE        21.7100   -4.2790    8.2400 C.3    75  LYS75       0.1093
    164  NZ        22.1970   -3.4770    7.0780 N.3    75  LYS75      -0.1314
@<TRIPOS>BOND
     1     4     3    2
     2     1     2    1
     3     3     2    1
     4     2     5    1
     5    16    15    1
     6    16    17    1
     7     5     6    1
     8    15    14    1
     9    17    18    1
    10    10    11    1
    11    22    21    2
    12    14    11    1
    13     7     6    1
    14     7     8    1
    15    26    25    2
    16    11    12    1
    17   103   102    2
    18    21    20    1
    19    21    23   am
    20    19    12   am
    21    19    20    1
    22    25    24    1
    23    25    31   am
    24    24    23    1
    25    24    27    1
    26    12    13    2
    27     8     9    1
    28   102   101    1
    29    31    32    1
    30    32    33    1
    31    27    28    1
    32    28    30    1
    33    28    29    1
    34    34    33    2
    35    33    35   am
    36   106   104    1
    37   101   104    1
    38   101   100    1
    39    43    41   ar
    40    43    45   ar
    41   104   105    1
    42    41    40   ar
    43    35    36    1
    44   159   158    2
    45    45    44   ar
    46   151   150    2
    47    40    39    1
    48    40    42   ar
    49    39    36    1
    50    36    37    1
    51   105   107    1
    52   158   157    1
    53    44    42   ar
    54   150   149    1
    55   150   156   am
    56   149   152    1
    57   149   148    1
    58   157   156    1
    59   157   160    1
    60   155   153    1
    61    37    38    2
    62    37    46   am
    63   152   153    1
    64   153   154    1
    65    94    93    2
    66    93    92    1
    67    46    47    1
    68   160   161    1
    69   161   162    1
    70   164   163    1
    71    92    95    1
    72    92    91    1
    73   144   143    2
    74    51    50    1
    75    47    48    1
    76    47    50    1
    77    95    96    1
    78    58    56    1
    79   162   163    1
    80    91    86   am
    81    49    48    2
    82   137   136    2
    83   143   142    1
    84    48    52   am
    85    86    87    2
    86    86    85    1
    87    52    53    1
    88    96    97    1
    89    84    85    1
    90    59    57    1
    91    56    57    1
    92    56    53    1
    93   136   135    1
    94   136   141   am
    95   142   141    1
    96   142   145    1
    97    53    54    1
    98    97    98    1
    99    85    88    1
   100   139   138    1
   101   135   138    1
   102   135   134    1
   103   147   145    1
   104   145   146    1
   105   138   140    1
   106    98    99    1
   107    88    89    1
   108    88    90    1
   109    54    55    2
   110    54    60   am
   111    60    61    1
   112   128   127    2
   113   124   122   ar
   114   124   123   ar
   115    61    62    1
   116    61    64    1
   117    63    62    2
   118   118   117    2
   119   122   120   ar
   120   127   126    1
   121   123   121   ar
   122   117   125   am
   123   117   116    1
   124   126   125    1
   125   126   129    1
   126   120   121   ar
   127   120   119    1
   128   111   110    2
   129   130   129    1
   130   130   131    1
   131   116   119    1
   132   116   115    1
   133   133   131   ar
   134   110   115   am
   135   110   109    1
   136   131   132   ar
   137    83    81   am
   138   108   109    1
   139   109   112    1
   140    79    78    2
   141    81    80    1
   142    81    82    2
   143   112   113    1
   144   112   114    1
   145    80    77    1
   146    78    77    1
   147    65    66    1
   148    77    76    1
   149    71    69    1
   150    66    69    1
   151    66    67    1
   152    76    74   am
   153    69    70    1
   154    67    68    2
   155    67    72   am
   156    72    73    1
   157    74    75    2
   158    74    73    1
