@<TRIPOS>MOLECULE
tmp/2m3zA01.pdb
 109 108 0 0 0
SMALL
GASTEIGER

@<TRIPOS>ATOM
      1  N         -5.5250   -0.0950   26.8070 N.3    16  PHE16      -0.1241
      2  CA        -6.7560   -0.5550   26.1680 C.3    16  PHE16       0.1605
      3  C         -7.3460    0.4880   25.1960 C.2    16  PHE16       0.2264
      4  O         -8.0390    0.1040   24.2530 O.2    16  PHE16      -0.2867
      5  CB        -7.7880   -0.9100   27.2540 C.3    16  PHE16       0.0534
      6  CG        -7.4490   -1.9900   28.2760 C.ar   16  PHE16      -0.0203
      7  CD1       -6.3690   -2.8870   28.1310 C.ar   16  PHE16      -0.0042
      8  CD2       -8.2840   -2.1080   29.4020 C.ar   16  PHE16      -0.0042
      9  CE1       -6.1310   -3.8700   29.1110 C.ar   16  PHE16      -0.0003
     10  CE2       -8.0690   -3.1070   30.3660 C.ar   16  PHE16      -0.0003
     11  CZ        -6.9820   -3.9870   30.2250 C.ar   16  PHE16      -0.0000
     12  N         -5.7760    4.8920   32.3330 N.3    26  LYS26      -0.1245
     13  CA        -5.8160    5.8470   33.4570 C.3    26  LYS26       0.1561
     14  C         -4.6550    6.8640   33.4280 C.2    26  LYS26       0.2260
     15  O         -4.8000    8.0050   33.8680 O.2    26  LYS26      -0.2867
     16  CB        -5.8050    5.0220   34.7590 C.3    26  LYS26       0.0271
     17  CG        -6.2720    5.8230   35.9840 C.3    26  LYS26       0.0035
     18  CD        -6.3230    4.9220   37.2270 C.3    26  LYS26       0.0206
     19  CE        -6.9290    5.6850   38.4120 C.3    26  LYS26       0.1093
     20  NZ        -6.9560    4.8540   39.6450 N.3    26  LYS26      -0.1314
     21  N        -10.3850   10.0780   24.3180 N.3    32  ARG32      -0.1231
     22  CA       -11.2450    8.9990   24.8120 C.3    32  ARG32       0.1694
     23  C        -12.5070    8.8750   23.9480 C.2    32  ARG32       0.2591
     24  O        -13.1460    9.8660   23.5890 O.2    32  ARG32      -0.2718
     25  CB       -11.5520    9.2020   26.3060 C.3    32  ARG32       0.0321
     26  CG       -10.2650    9.3540   27.1400 C.3    32  ARG32       0.0489
     27  CD       -10.5430    9.3920   28.6480 C.3    32  ARG32       0.2205
     28  NE        -9.3090    9.6230   29.4270 N.pl3  32  ARG32      -0.0865
     29  CZ        -8.3160    8.7660   29.6500 C.cat  32  ARG32       0.5346
     30  NH1       -8.2920    7.5480   29.1560 N.pl3  32  ARG32       0.1354
     31  NH2       -7.2960    9.1140   30.4010 N.pl3  32  ARG32       0.1354
     32  N        -12.8230    7.6330   23.5830 N.am   33  LYS33      -0.1980
     33  CA       -13.8530    7.2540   22.6010 C.3    33  LYS33       0.1596
     34  C        -15.3030    7.5450   23.0600 C.2    33  LYS33       0.2287
     35  O        -15.5540    7.9380   24.1990 O.2    33  LYS33      -0.2864
     36  CB       -13.6380    5.7620   22.2550 C.3    33  LYS33       0.0298
     37  CG       -12.3060    5.5280   21.5180 C.3    33  LYS33       0.0038
     38  CD       -12.0760    4.0450   21.1940 C.3    33  LYS33       0.0206
     39  CE       -10.9080    3.8430   20.2140 C.3    33  LYS33       0.1093
     40  NZ        -9.6040    4.3110   20.7550 N.3    33  LYS33      -0.1314
     41  N        -17.3540    5.1060   23.5350 N.3    35  GLY35      -0.1210
     42  CA       -17.6380    3.7450   23.9990 C.3    35  GLY35       0.1956
     43  C        -16.4930    3.0690   24.7490 C.2    35  GLY35       0.2612
     44  O        -15.3990    3.6150   24.8960 O.2    35  GLY35      -0.2717
     45  N        -16.7820    1.8600   25.2160 N.am   36  CYS36      -0.1956
     46  CA       -15.9270    0.9880   26.0230 C.3    36  CYS36       0.1843
     47  C        -14.6110    0.6080   25.3380 C.2    36  CYS36       0.2625
     48  O        -14.5940    0.2790   24.1500 O.2    36  CYS36      -0.2714
     49  CB       -16.7510   -0.2600   26.3180 C.3    36  CYS36       0.0997
     50  SG       -15.9760   -1.5630   27.3030 S.3    36  CYS36      -0.0797
     51  N        -13.5020    0.6030   26.0830 N.am   37  TRP37      -0.1960
     52  CA       -12.2090    0.1010   25.6040 C.3    37  TRP37       0.1771
     53  C        -12.0660   -1.4290   25.7420 C.2    37  TRP37       0.2619
     54  O        -11.1990   -2.0200   25.0960 O.2    37  TRP37      -0.2715
     55  CB       -11.0750    0.8040   26.3650 C.3    37  TRP37       0.0590
     56  CG       -11.0870    2.3030   26.3920 C.ar   37  TRP37       0.0006
     57  CD1      -11.3220    3.1270   25.3450 C.ar   37  TRP37       0.0946
     58  CD2      -10.8720    3.1760   27.5420 C.ar   37  TRP37       0.0152
     59  NE1      -11.2780    4.4410   25.7700 N.ar   37  TRP37      -0.2442
     60  CE2      -11.0230    4.5270   27.1180 C.ar   37  TRP37       0.0810
     61  CE3      -10.6020    2.9630   28.9090 C.ar   37  TRP37       0.0012
     62  CZ2      -10.9500    5.6050   28.0090 C.ar   37  TRP37       0.0191
     63  CZ3      -10.5420    4.0350   29.8180 C.ar   37  TRP37       0.0001
     64  CH2      -10.7330    5.3560   29.3730 C.ar   37  TRP37       0.0015
     65  N        -12.8910   -2.0800   26.5750 N.am   38  LYS38      -0.1977
     66  CA       -12.7940   -3.5150   26.8840 C.3    38  LYS38       0.1596
     67  C        -13.6310   -4.4070   25.9410 C.2    38  LYS38       0.2287
     68  O        -13.1620   -5.4860   25.5700 O.2    38  LYS38      -0.2864
     69  CB       -13.1120   -3.7110   28.3810 C.3    38  LYS38       0.0298
     70  CG       -12.9300   -5.1680   28.8380 C.3    38  LYS38       0.0038
     71  CD       -12.9170   -5.3200   30.3680 C.3    38  LYS38       0.0206
     72  CE       -14.1980   -4.8670   31.0850 C.3    38  LYS38       0.1093
     73  NZ       -15.3820   -5.6950   30.7350 N.3    38  LYS38      -0.1314
     74  N        -21.3230    3.1450   27.6170 N.3    44  HIS44      -0.1226
     75  CA       -20.8430    2.7680   28.9520 C.3    44  HIS44       0.1752
     76  C        -19.3080    2.8860   29.1240 C.2    44  HIS44       0.2596
     77  O        -18.5470    2.8740   28.1510 O.2    44  HIS44      -0.2718
     78  CB       -21.3660    1.3560   29.2880 C.3    44  HIS44       0.0759
     79  CG       -20.8060    0.2370   28.4510 C.ar   44  HIS44       0.0818
     80  ND1      -21.3440   -0.2590   27.2900 N.ar   44  HIS44      -0.2268
     81  CD2      -19.6950   -0.5100   28.7260 C.ar   44  HIS44       0.1154
     82  CE1      -20.5720   -1.2820   26.8780 C.ar   44  HIS44       0.1986
     83  NE2      -19.5440   -1.4740   27.7190 N.ar   44  HIS44      -0.2212
     84  N        -18.8640    2.9840   30.3830 N.am   45  GLN45      -0.1965
     85  CA       -17.4590    2.8740   30.7880 C.3    45  GLN45       0.1733
     86  C        -17.1550    1.4130   31.1490 C.2    45  GLN45       0.2616
     87  O        -18.0190    0.7030   31.6660 O.2    45  GLN45      -0.2715
     88  CB       -17.1770    3.7680   32.0100 C.3    45  GLN45       0.0408
     89  CG       -17.1830    5.2740   31.6910 C.3    45  GLN45       0.0908
     90  CD       -16.7810    6.1410   32.8950 C.2    45  GLN45       0.2608
     91  OE1      -16.6860    5.6900   34.0320 O.2    45  GLN45      -0.2717
     92  NE2      -16.5240    7.4220   32.7230 N.am   45  GLN45      -0.0878
     93  N        -15.9210    0.9550   30.9240 N.am   46  MET46      -0.1963
     94  CA       -15.5670   -0.4670   31.0370 C.3    46  MET46       0.1736
     95  C        -15.6430   -1.0730   32.4560 C.2    46  MET46       0.2616
     96  O        -15.5910   -2.2940   32.5920 O.2    46  MET46      -0.2715
     97  CB       -14.2130   -0.7060   30.3640 C.3    46  MET46       0.0427
     98  CG       -13.0530    0.0250   31.0310 C.3    46  MET46       0.0599
     99  SD       -11.4550   -0.4950   30.3860 S.3    46  MET46      -0.1393
    100  CE       -10.3820    0.3560   31.5650 C.3    46  MET46       0.0692
    101  N        -15.8130   -0.2680   33.5130 N.am   47  LYS47      -0.1977
    102  CA       -16.1380   -0.7590   34.8670 C.3    47  LYS47       0.1596
    103  C        -17.6300   -1.1060   35.0640 C.2    47  LYS47       0.2287
    104  O        -17.9600   -1.8850   35.9590 O.2    47  LYS47      -0.2864
    105  CB       -15.6550    0.2220   35.9510 C.3    47  LYS47       0.0298
    106  CG       -16.0140    1.6940   35.7090 C.3    47  LYS47       0.0038
    107  CD       -15.7070    2.5570   36.9400 C.3    47  LYS47       0.0206
    108  CE       -16.0630    4.0210   36.6570 C.3    47  LYS47       0.1093
    109  NZ       -15.5360    4.9370   37.7020 N.3    47  LYS47      -0.1314
@<TRIPOS>BOND
     1    39    40    1
     2    39    38    1
     3    38    37    1
     4    37    36    1
     5    36    33    1
     6    33    34    1
     7    33    32    1
     8    34    35    2
     9    41    42    1
    10    32    23   am
    11    24    23    2
    12    23    22    1
    13    42    43    1
    14    48    47    2
    15     4     3    2
    16    21    22    1
    17    43    44    2
    18    43    45   am
    19    22    25    1
    20    54    53    2
    21     3     2    1
    22    45    46    1
    23    47    46    1
    24    47    51   am
    25    57    59   ar
    26    57    56   ar
    27    68    67    2
    28    52    53    1
    29    52    51    1
    30    52    55    1
    31    53    65   am
    32    59    60   ar
    33    67    66    1
    34    46    49    1
    35     2     1    1
    36     2     5    1
    37    25    26    1
    38    49    50    1
    39    55    56    1
    40    56    58   ar
    41    65    66    1
    42    82    80   ar
    43    82    83   ar
    44    66    69    1
    45    60    58   ar
    46    60    62   ar
    47    26    27    1
    48     5     6    1
    49    80    79   ar
    50    58    61   ar
    51    74    75    1
    52    83    81   ar
    53    62    64   ar
    54     7     6   ar
    55     7     9   ar
    56    77    76    2
    57     6     8   ar
    58    69    70    1
    59    79    81   ar
    60    79    78    1
    61    27    28    1
    62    70    71    1
    63    61    63   ar
    64    75    76    1
    65    75    78    1
    66     9    11   ar
    67    76    84   am
    68    30    29    1
    69    64    63   ar
    70     8    10   ar
    71    28    29    2
    72    29    31    1
    73    11    10   ar
    74    97    98    1
    75    97    94    1
    76    71    72    1
    77    84    85    1
    78    99    98    1
    79    99   100    1
    80    73    72    1
    81    85    86    1
    82    85    88    1
    83    93    94    1
    84    93    86   am
    85    94    95    1
    86    86    87    2
    87    89    88    1
    88    89    90    1
    89    12    13    1
    90    95    96    2
    91    95   101   am
    92    92    90   am
    93    90    91    2
    94    14    13    1
    95    14    15    2
    96    13    16    1
    97   101   102    1
    98    16    17    1
    99   102   103    1
   100   102   105    1
   101   103   104    2
   102   106   105    1
   103   106   107    1
   104    17    18    1
   105   108   107    1
   106   108   109    1
   107    18    19    1
   108    19    20    1
