@<TRIPOS>MOLECULE
tmp/2m3zA00.pdb
 114 110 0 0 0
SMALL
GASTEIGER

@<TRIPOS>ATOM
      1  N         -3.9810  -11.0750   31.6020 N.3     3  LYS3       -0.1245
      2  CA        -5.4530  -11.0460   31.6970 C.3     3  LYS3        0.1561
      3  C         -6.1420  -11.0340   30.3210 C.2     3  LYS3        0.2260
      4  O         -7.2300  -11.5990   30.1700 O.2     3  LYS3       -0.2867
      5  CB        -5.8820   -9.8200   32.5250 C.3     3  LYS3        0.0271
      6  CG        -5.5280   -9.9760   34.0150 C.3     3  LYS3        0.0035
      7  CD        -5.8090   -8.7090   34.8360 C.3     3  LYS3        0.0206
      8  CE        -7.2870   -8.2910   34.8070 C.3     3  LYS3        0.1093
      9  NZ        -7.5300   -7.1170   35.6830 N.3     3  LYS3       -0.1314
     10  N         -0.2400   -7.7920   28.4220 N.3     8  ASN8       -0.1225
     11  CA        -0.6460   -6.6560   29.2680 C.3     8  ASN8        0.1785
     12  C         -0.1040   -6.7200   30.7180 C.2     8  ASN8        0.2597
     13  O         -0.3520   -5.8100   31.5070 O.2     8  ASN8       -0.2718
     14  CB        -2.1830   -6.5300   29.2360 C.3     8  ASN8        0.1169
     15  CG        -2.9060   -7.4350   30.2340 C.2     8  ASN8        0.2627
     16  OD1       -2.6960   -8.6410   30.2930 O.2     8  ASN8       -0.2716
     17  ND2       -3.7570   -6.8720   31.0720 N.am    8  ASN8       -0.0877
     18  N          0.6020   -7.7980   31.0760 N.am    9  GLN9       -0.1979
     19  CA         1.2980   -7.9860   32.3600 C.3     9  GLN9        0.1601
     20  C          2.6230   -8.7420   32.1440 C.2     9  GLN9        0.2287
     21  O          3.6580   -8.3580   32.6900 O.2     9  GLN9       -0.2864
     22  CB         0.4150   -8.7970   33.3270 C.3     9  GLN9        0.0394
     23  CG        -0.9040   -8.1260   33.7400 C.3     9  GLN9        0.0908
     24  CD        -1.7050   -8.9870   34.7210 C.2     9  GLN9        0.2608
     25  OE1       -1.6570  -10.2100   34.7140 O.2     9  GLN9       -0.2717
     26  NE2       -2.4780   -8.3890   35.6000 N.am    9  GLN9       -0.0878
     27  N          3.2970   -3.8860   29.7910 N.3    13  VAL13      -0.1231
     28  CA         1.9250   -3.4260   30.0780 C.3    13  VAL13       0.1692
     29  C          1.4180   -2.6510   28.8550 C.2    13  VAL13       0.2592
     30  O          2.1990   -1.9420   28.2220 O.2    13  VAL13      -0.2718
     31  CB         1.8660   -2.5920   31.3830 C.3    13  VAL13       0.0266
     32  CG1        2.6600   -1.2750   31.3140 C.3    13  VAL13       0.0020
     33  CG2        0.4210   -2.2830   31.8010 C.3    13  VAL13       0.0020
     34  N          0.1420   -2.8190   28.4920 N.am   14  LYS14      -0.1966
     35  CA        -0.4320   -2.3180   27.2330 C.3    14  LYS14       0.1728
     36  C         -1.7730   -1.5960   27.4460 C.2    14  LYS14       0.2616
     37  O         -2.6910   -2.1660   28.0370 O.2    14  LYS14      -0.2715
     38  CB        -0.5760   -3.5240   26.2810 C.3    14  LYS14       0.0311
     39  CG        -0.9940   -3.1320   24.8570 C.3    14  LYS14       0.0038
     40  CD        -1.2090   -4.3750   23.9780 C.3    14  LYS14       0.0206
     41  CE        -1.6130   -3.9460   22.5600 C.3    14  LYS14       0.1093
     42  NZ        -1.8990   -5.0990   21.6680 N.3    14  LYS14      -0.1314
     43  N         -1.9160   -0.3690   26.9410 N.am   15  CYS15      -0.1954
     44  CA        -3.1490    0.4300   27.0390 C.3    15  CYS15       0.1843
     45  C         -4.3150   -0.1690   26.2460 C.2    15  CYS15       0.2625
     46  O         -4.1320   -0.6790   25.1370 O.2    15  CYS15      -0.2714
     47  CB        -2.8500    1.8440   26.5570 C.3    15  CYS15       0.0997
     48  SG        -4.2640    2.9710   26.4150 S.3    15  CYS15      -0.0797
     49  N         -5.5250   -0.0950   26.8070 N.am   16  PHE16      -0.1974
     50  CA        -6.7560   -0.5550   26.1680 C.3    16  PHE16       0.1639
     51  C         -7.3460    0.4880   25.1960 C.2    16  PHE16       0.2290
     52  O         -8.0390    0.1040   24.2530 O.2    16  PHE16      -0.2864
     53  CB        -7.7880   -0.9100   27.2540 C.3    16  PHE16       0.0560
     54  CG        -7.4490   -1.9900   28.2760 C.ar   16  PHE16      -0.0200
     55  CD1       -6.3690   -2.8870   28.1310 C.ar   16  PHE16      -0.0042
     56  CD2       -8.2840   -2.1080   29.4020 C.ar   16  PHE16      -0.0042
     57  CE1       -6.1310   -3.8700   29.1110 C.ar   16  PHE16      -0.0003
     58  CE2       -8.0690   -3.1070   30.3660 C.ar   16  PHE16      -0.0003
     59  CZ        -6.9820   -3.9870   30.2250 C.ar   16  PHE16      -0.0000
     60  N         -1.1870    2.5330   30.9570 N.3    24  ILE24      -0.1231
     61  CA        -2.5910    2.1080   31.0670 C.3    24  ILE24       0.1692
     62  C         -3.5090    3.2940   30.7450 C.2    24  ILE24       0.2592
     63  O         -3.0840    4.4420   30.8790 O.2    24  ILE24      -0.2718
     64  CB        -2.8700    1.5530   32.4880 C.3    24  ILE24       0.0266
     65  CG1       -2.6360    2.6080   33.6030 C.3    24  ILE24       0.0019
     66  CG2       -2.0260    0.2880   32.7290 C.3    24  ILE24       0.0020
     67  CD1       -3.0350    2.1230   35.0010 C.3    24  ILE24       0.0001
     68  N         -4.7730    3.0610   30.3830 N.am   25  ALA25      -0.1966
     69  CA        -5.6930    4.1290   29.9750 C.3    25  ALA25       0.1728
     70  C         -5.9170    5.2220   31.0430 C.2    25  ALA25       0.2616
     71  O         -6.1650    6.3770   30.6950 O.2    25  ALA25      -0.2715
     72  CB        -7.0210    3.4830   29.5590 C.3    25  ALA25       0.0334
     73  N         -5.7760    4.8920   32.3330 N.am   26  LYS26      -0.1977
     74  CA        -5.8160    5.8470   33.4570 C.3    26  LYS26       0.1596
     75  C         -4.6550    6.8640   33.4280 C.2    26  LYS26       0.2287
     76  O         -4.8000    8.0050   33.8680 O.2    26  LYS26      -0.2864
     77  CB        -5.8050    5.0220   34.7590 C.3    26  LYS26       0.0298
     78  CG        -6.2720    5.8230   35.9840 C.3    26  LYS26       0.0038
     79  CD        -6.3230    4.9220   37.2270 C.3    26  LYS26       0.0206
     80  CE        -6.9290    5.6850   38.4120 C.3    26  LYS26       0.1093
     81  NZ        -6.9560    4.8540   39.6450 N.3    26  LYS26      -0.1314
     82  N        -10.3850   10.0780   24.3180 N.3    32  ARG32      -0.1245
     83  CA       -11.2450    8.9990   24.8120 C.3    32  ARG32       0.1563
     84  C        -12.5070    8.8750   23.9480 C.2    32  ARG32       0.2260
     85  O        -13.1460    9.8660   23.5890 O.2    32  ARG32      -0.2867
     86  CB       -11.5520    9.2020   26.3060 C.3    32  ARG32       0.0307
     87  CG       -10.2650    9.3540   27.1400 C.3    32  ARG32       0.0489
     88  CD       -10.5430    9.3920   28.6480 C.3    32  ARG32       0.2205
     89  NE        -9.3090    9.6230   29.4270 N.pl3  32  ARG32      -0.0865
     90  CZ        -8.3160    8.7660   29.6500 C.cat  32  ARG32       0.5346
     91  NH1       -8.2920    7.5480   29.1560 N.pl3  32  ARG32       0.1354
     92  NH2       -7.2960    9.1140   30.4010 N.pl3  32  ARG32       0.1354
     93  N        -13.5020    0.6030   26.0830 N.3    37  TRP37      -0.1241
     94  CA       -12.2090    0.1010   25.6040 C.3    37  TRP37       0.1605
     95  C        -12.0660   -1.4290   25.7420 C.2    37  TRP37       0.2264
     96  O        -11.1990   -2.0200   25.0960 O.2    37  TRP37      -0.2867
     97  CB       -11.0750    0.8040   26.3650 C.3    37  TRP37       0.0550
     98  CG       -11.0870    2.3030   26.3920 C.ar   37  TRP37       0.0003
     99  CD1      -11.3220    3.1270   25.3450 C.ar   37  TRP37       0.0946
    100  CD2      -10.8720    3.1760   27.5420 C.ar   37  TRP37       0.0152
    101  NE1      -11.2780    4.4410   25.7700 N.ar   37  TRP37      -0.2442
    102  CE2      -11.0230    4.5270   27.1180 C.ar   37  TRP37       0.0810
    103  CE3      -10.6020    2.9630   28.9090 C.ar   37  TRP37       0.0012
    104  CZ2      -10.9500    5.6050   28.0090 C.ar   37  TRP37       0.0191
    105  CZ3      -10.5420    4.0350   29.8180 C.ar   37  TRP37       0.0001
    106  CH2      -10.7330    5.3560   29.3730 C.ar   37  TRP37       0.0015
    107  N        -15.9210    0.9550   30.9240 N.3    46  MET46      -0.1245
    108  CA       -15.5670   -0.4670   31.0370 C.3    46  MET46       0.1570
    109  C        -15.6430   -1.0730   32.4560 C.2    46  MET46       0.2261
    110  O        -15.5910   -2.2940   32.5920 O.2    46  MET46      -0.2867
    111  CB       -14.2130   -0.7060   30.3640 C.3    46  MET46       0.0387
    112  CG       -13.0530    0.0250   31.0310 C.3    46  MET46       0.0595
    113  SD       -11.4550   -0.4950   30.3860 S.3    46  MET46      -0.1393
    114  CE       -10.3820    0.3560   31.5650 C.3    46  MET46       0.0692
@<TRIPOS>BOND
     1    42    41    1
     2    41    40    1
     3    85    84    2
     4    84    83    1
     5    40    39    1
     6    52    51    2
     7    82    83    1
     8    83    86    1
     9    39    38    1
    10    96    95    2
    11    46    45    2
    12    51    50    1
    13    99   101   ar
    14    99    98   ar
    15    94    95    1
    16    94    93    1
    17    94    97    1
    18   101   102   ar
    19    50    49    1
    20    50    53    1
    21    45    49   am
    22    45    44    1
    23    38    35    1
    24    86    87    1
    25    97    98    1
    26    98   100   ar
    27    48    47    1
    28    47    44    1
    29    43    44    1
    30    43    36   am
    31   102   100   ar
    32   102   104   ar
    33    87    88    1
    34    35    36    1
    35    35    34    1
    36    53    54    1
    37    36    37    2
    38   100   103   ar
    39   104   106   ar
    40    55    54   ar
    41    55    57   ar
    42    30    29    2
    43    54    56   ar
    44    10    11    1
    45    34    29   am
    46    88    89    1
    47    29    28    1
    48   103   105   ar
    49    57    59   ar
    50    91    90    1
    51    14    11    1
    52    14    15    1
    53    11    12    1
    54   106   105   ar
    55    56    58   ar
    56    89    90    2
    57    72    69    1
    58    90    92    1
    59    27    28    1
    60    69    68    1
    61    69    70    1
    62    28    31    1
    63     4     3    2
    64    59    58   ar
    65    15    16    2
    66    15    17   am
    67     3     2    1
    68   111   112    1
    69   111   108    1
    70    68    62   am
    71   113   112    1
    72   113   114    1
    73    71    70    2
    74    12    18   am
    75    12    13    2
    76    62    63    2
    77    62    61    1
    78   107   108    1
    79    60    61    1
    80   108   109    1
    81    70    73   am
    82    61    64    1
    83    18    19    1
    84    32    31    1
    85    31    33    1
    86     1     2    1
    87     2     5    1
    88    20    19    1
    89    20    21    2
    90    73    74    1
    91    19    22    1
    92   109   110    2
    93    64    66    1
    94    64    65    1
    95     5     6    1
    96    22    23    1
    97    75    74    1
    98    75    76    2
    99    74    77    1
   100    65    67    1
   101    23    24    1
   102     6     7    1
   103    25    24    2
   104    24    26   am
   105    77    78    1
   106     8     7    1
   107     8     9    1
   108    78    79    1
   109    79    80    1
   110    80    81    1
