@<TRIPOS>MOLECULE
tmp/2m5dA00.pdb
 101 96 0 0 0
SMALL
GASTEIGER

@<TRIPOS>ATOM
      1  N         -1.8100   18.9470   -2.8830 N.3    34  PHE34      -0.1241
      2  CA        -0.8470   19.1420   -1.8050 C.3    34  PHE34       0.1605
      3  C          0.2040   20.1770   -2.1950 C.2    34  PHE34       0.2264
      4  O          0.8990   20.0250   -3.1980 O.2    34  PHE34      -0.2867
      5  CB        -0.1670   17.8170   -1.4540 C.3    34  PHE34       0.0534
      6  CG         1.1590   17.9860   -0.7690 C.ar   34  PHE34      -0.0203
      7  CD1        1.2240   18.2030    0.5970 C.ar   34  PHE34      -0.0042
      8  CD2        2.3390   17.9260   -1.4910 C.ar   34  PHE34      -0.0042
      9  CE1        2.4430   18.3600    1.2300 C.ar   34  PHE34      -0.0003
     10  CE2        3.5610   18.0820   -0.8650 C.ar   34  PHE34      -0.0003
     11  CZ         3.6130   18.2980    0.4980 C.ar   34  PHE34      -0.0000
     12  N         -0.0680   15.1610   -6.1960 N.3    39  VAL39      -0.1245
     13  CA         0.8420   14.1370   -5.6990 C.3    39  VAL39       0.1561
     14  C          0.1850   12.7610   -5.7150 C.2    39  VAL39       0.2260
     15  O         -0.6520   12.4350   -4.8730 O.2    39  VAL39      -0.2867
     16  CB         1.3130   14.4510   -4.2660 C.3    39  VAL39       0.0252
     17  CG1        2.2330   13.3540   -3.7520 C.3    39  VAL39       0.0019
     18  CG2        2.0060   15.8040   -4.2180 C.3    39  VAL39       0.0019
     19  N         -6.0270    9.7150   -0.1530 N.3    59  TRP59      -0.1241
     20  CA        -5.5470   10.9010    0.5480 C.3    59  TRP59       0.1605
     21  C         -6.5700   11.3780    1.5730 C.2    59  TRP59       0.2264
     22  O         -6.2140   11.7570    2.6890 O.2    59  TRP59      -0.2867
     23  CB        -5.2440   12.0200   -0.4490 C.3    59  TRP59       0.0550
     24  CG        -3.9790   11.8010   -1.2220 C.ar   59  TRP59       0.0003
     25  CD1       -3.8730   11.3670   -2.5130 C.ar   59  TRP59       0.0946
     26  CD2       -2.6410   12.0020   -0.7530 C.ar   59  TRP59       0.0152
     27  NE1       -2.5490   11.2870   -2.8740 N.ar   59  TRP59      -0.2442
     28  CE2       -1.7740   11.6710   -1.8130 C.ar   59  TRP59       0.0810
     29  CE3       -2.0920   12.4300    0.4590 C.ar   59  TRP59       0.0012
     30  CZ2       -0.3890   11.7570   -1.6940 C.ar   59  TRP59       0.0191
     31  CZ3       -0.7180   12.5140    0.5740 C.ar   59  TRP59       0.0001
     32  CH2        0.1220   12.1790   -0.4970 C.ar   59  TRP59       0.0015
     33  N         -0.2680    8.2380    7.6810 N.3    88  HIS88      -0.1241
     34  CA        -0.1950    9.3830    6.7810 C.3    88  HIS88       0.1621
     35  C         -1.5160    9.5810    6.0460 C.2    88  HIS88       0.2264
     36  O         -2.3310    8.6620    5.9560 O.2    88  HIS88      -0.2867
     37  CB         0.9400    9.1960    5.7740 C.3    88  HIS88       0.0745
     38  CG         2.2020    9.9060    6.1570 C.ar   88  HIS88       0.0817
     39  ND1        3.4000    9.7170    5.5000 N.ar   88  HIS88      -0.2268
     40  CD2        2.4490   10.8120    7.1320 C.ar   88  HIS88       0.1154
     41  CE1        4.3290   10.4730    6.0580 C.ar   88  HIS88       0.1986
     42  NE2        3.7780   11.1480    7.0500 N.ar   88  HIS88      -0.2212
     43  N         -2.0450    9.6340    3.0860 N.3    90  ASP90      -0.1239
     44  CA        -2.1010    8.7100    1.9580 C.3    90  ASP90       0.1674
     45  C         -2.1960    7.2670    2.4430 C.2    90  ASP90       0.2266
     46  O         -2.0500    6.3280    1.6600 O.2    90  ASP90      -0.2867
     47  CB        -0.8680    8.8820    1.0690 C.3    90  ASP90       0.1410
     48  CG         0.3120    8.0600    1.5490 C.2    90  ASP90       0.3668
     49  OD1        0.6990    8.2090    2.7270 O.co2  90  ASP90      -0.2456
     50  OD2        0.8470    7.2660    0.7470 O.co2  90  ASP90      -0.2456
     51  N         10.6100    6.0760    5.6380 N.3   149  HIS149     -0.1241
     52  CA         9.7230    7.1750    5.2720 C.3   149  HIS149      0.1621
     53  C          8.9640    7.6900    6.4900 C.2   149  HIS149      0.2264
     54  O          8.5890    8.8610    6.5520 O.2   149  HIS149     -0.2867
     55  CB         8.7370    6.7230    4.1950 C.3   149  HIS149      0.0745
     56  CG         7.5920    7.6700    3.9960 C.ar  149  HIS149      0.0817
     57  ND1        7.7590    8.9770    3.5900 N.ar  149  HIS149     -0.2268
     58  CD2        6.2590    7.4910    4.1480 C.ar  149  HIS149      0.1154
     59  CE1        6.5770    9.5630    3.5030 C.ar  149  HIS149      0.1986
     60  NE2        5.6510    8.6830    3.8360 N.ar  149  HIS149     -0.2212
     61  N          6.1970    3.9150    0.2080 N.3   168  CYS168     -0.1235
     62  CA         7.0270    5.1120    0.2540 C.3   168  CYS168      0.1677
     63  C          8.4710    4.7600    0.6020 C.2   168  CYS168      0.2270
     64  O          9.4020    5.4810    0.2440 O.2   168  CYS168     -0.2867
     65  CB         6.4720    6.1050    1.2760 C.3   168  CYS168      0.0956
     66  SG         4.6920    6.4440    1.0920 S.3   168  CYS168     -0.0801
     67  N         11.4970    3.4160   -3.0160 N.3   171  LYS171     -0.1245
     68  CA        11.3240    4.3600   -4.1130 C.3   171  LYS171      0.1561
     69  C         11.4790    3.6640   -5.4610 C.2   171  LYS171      0.2260
     70  O         12.1700    2.6510   -5.5710 O.2   171  LYS171     -0.2867
     71  CB        12.3380    5.5010   -3.9960 C.3   171  LYS171      0.0271
     72  CG        11.7980    6.8440   -4.4530 C.3   171  LYS171      0.0035
     73  CD        10.6510    7.3130   -3.5750 C.3   171  LYS171      0.0206
     74  CE        11.0880    8.4190   -2.6280 C.3   171  LYS171      0.1093
     75  NZ        10.0260    9.4470   -2.4460 N.3   171  LYS171     -0.1314
     76  N         14.9210   10.9720   -2.4180 N.3   178  LEU178     -0.1245
     77  CA        13.8790   10.6410   -1.4540 C.3   178  LEU178      0.1561
     78  C         12.9400   11.8240   -1.2380 C.2   178  LEU178      0.2260
     79  O         11.7340   11.6500   -1.0720 O.2   178  LEU178     -0.2867
     80  CB        14.5040   10.2230   -0.1210 C.3   178  LEU178      0.0270
     81  CG        15.6330    9.1950   -0.2030 C.3   178  LEU178      0.0019
     82  CD1       16.8590    9.6890    0.5490 C.3   178  LEU178      0.0001
     83  CD2       15.1730    7.8530    0.3460 C.3   178  LEU178      0.0001
     84  N         11.6110   15.3800    0.7720 N.3   180  ASN180     -0.1240
     85  CA        11.4670   15.8740    2.1360 C.3   180  ASN180      0.1653
     86  C         11.6540   14.7450    3.1460 C.2   180  ASN180      0.2266
     87  O         10.9960   13.7080    3.0620 O.2   180  ASN180     -0.2867
     88  CB        10.0930   16.5200    2.3250 C.3   180  ASN180      0.1155
     89  CG        10.1470   17.7380    3.2270 C.2   180  ASN180      0.2627
     90  OD1       11.1760   18.4070    3.3260 O.2   180  ASN180     -0.2716
     91  ND2        9.0350   18.0320    3.8910 N.am  180  ASN180     -0.0877
     92  N          5.2780    6.3520   -4.8120 N.3   210  HIS210     -0.1241
     93  CA         4.9340    7.3980   -5.7680 C.3   210  HIS210      0.1621
     94  C          5.6540    7.1800   -7.0950 C.2   210  HIS210      0.2264
     95  O          6.7980    7.5990   -7.2680 O.2   210  HIS210     -0.2867
     96  CB         5.2880    8.7740   -5.2020 C.3   210  HIS210      0.0745
     97  CG         4.8840    8.9540   -3.7700 C.ar  210  HIS210      0.0817
     98  ND1        3.8060    9.7210   -3.3840 N.ar  210  HIS210     -0.2268
     99  CD2        5.4200    8.4590   -2.6300 C.ar  210  HIS210      0.1154
    100  CE1        3.6970    9.6920   -2.0680 C.ar  210  HIS210      0.1986
    101  NE2        4.6640    8.9330   -1.5870 N.ar  210  HIS210     -0.2212
@<TRIPOS>BOND
     1    95    94    2
     2    94    93    1
     3    12    13    1
     4    93    96    1
     5    93    92    1
     6    14    13    1
     7    14    15    2
     8    13    16    1
     9    70    69    2
    10    69    68    1
    11    96    97    1
    12    72    71    1
    13    72    73    1
    14    16    18    1
    15    16    17    1
    16    68    71    1
    17    68    67    1
    18    97    98   ar
    19    97    99   ar
    20    73    74    1
    21    98   100   ar
    22     4     3    2
    23     1     2    1
    24    27    25   ar
    25    27    28   ar
    26    99   101   ar
    27    74    75    1
    28    25    24   ar
    29    76    77    1
    30     3     2    1
    31   100   101   ar
    32    28    30   ar
    33    28    26   ar
    34     2     5    1
    35    30    32   ar
    36     8    10   ar
    37     8     6   ar
    38     5     6    1
    39    77    78    1
    40    77    80    1
    41    78    79    2
    42    24    26   ar
    43    24    23    1
    44    10    11   ar
    45     6     7   ar
    46    26    29   ar
    47    32    31   ar
    48    23    20    1
    49    81    80    1
    50    81    83    1
    51    81    82    1
    52    19    20    1
    53    61    62    1
    54    64    63    2
    55    62    63    1
    56    62    65    1
    57    29    31   ar
    58    11     9   ar
    59    20    21    1
    60     7     9   ar
    61    50    48   ar
    62    84    85    1
    63    47    48    1
    64    47    44    1
    65    66    65    1
    66    48    49   ar
    67    21    22    2
    68    46    45    2
    69    44    45    1
    70    44    43    1
    71    85    88    1
    72    85    86    1
    73    88    89    1
    74    87    86    2
    75    89    90    2
    76    89    91   am
    77    59    57   ar
    78    59    60   ar
    79    57    56   ar
    80    60    58   ar
    81    56    58   ar
    82    56    55    1
    83    55    52    1
    84    52    51    1
    85    52    53    1
    86    39    41   ar
    87    39    38   ar
    88    37    38    1
    89    37    34    1
    90    36    35    2
    91    35    34    1
    92    41    42   ar
    93    38    40   ar
    94    53    54    2
    95    34    33    1
    96    42    40   ar
