@<TRIPOS>MOLECULE
tmp/2m6sA00.pdb
 141 137 0 0 0
SMALL
GASTEIGER

@<TRIPOS>ATOM
      1  N         20.5770   10.5410  -18.6410 N.3    10  THR10      -0.1203
      2  CA        21.2870    9.8870  -19.7580 C.3    10  THR10       0.1994
      3  C         21.3270   10.7430  -21.0270 C.2    10  THR10       0.2618
      4  O         20.5480   11.6840  -21.1730 O.2    10  THR10      -0.2717
      5  CB        20.6490    8.5230  -20.0470 C.3    10  THR10       0.1784
      6  OG1       21.4830    7.8050  -20.9230 O.3    10  THR10      -0.2211
      7  CG2       19.2850    8.5410  -20.7080 C.3    10  THR10       0.0376
      8  N         22.2200   10.3770  -21.9480 N.am   11  MET11      -0.1965
      9  CA        22.3060   10.9040  -23.3220 C.3    11  MET11       0.1736
     10  C         22.3770    9.7750  -24.3780 C.2    11  MET11       0.2616
     11  O         22.4660   10.0600  -25.5740 O.2    11  MET11      -0.2715
     12  CB        23.5000   11.8710  -23.4430 C.3    11  MET11       0.0427
     13  CG        23.4980   12.9500  -22.3490 C.3    11  MET11       0.0599
     14  SD        24.6800   14.3060  -22.5540 S.3    11  MET11      -0.1393
     15  CE        23.8430   15.2750  -23.8360 C.3    11  MET11       0.0692
     16  N         22.3120    8.5000  -23.9470 N.am   12  TYR12      -0.1960
     17  CA        22.4690    7.3090  -24.8050 C.3    12  TYR12       0.1771
     18  C         21.5070    6.1440  -24.4740 C.2    12  TYR12       0.2620
     19  O         21.3850    5.2110  -25.2720 O.2    12  TYR12      -0.2715
     20  CB        23.9310    6.8250  -24.7360 C.3    12  TYR12       0.0574
     21  CG        24.9640    7.8070  -25.2670 C.ar   12  TYR12      -0.0198
     22  CD1       25.2450    7.8550  -26.6480 C.ar   12  TYR12      -0.0009
     23  CD2       25.6510    8.6660  -24.3850 C.ar   12  TYR12      -0.0009
     24  CE1       26.2070    8.7580  -27.1470 C.ar   12  TYR12       0.0417
     25  CE2       26.6140    9.5670  -24.8790 C.ar   12  TYR12       0.0417
     26  CZ        26.8950    9.6160  -26.2590 C.ar   12  TYR12       0.1957
     27  OH        27.8230   10.4920  -26.7340 O.3    12  TYR12      -0.2866
     28  N         20.8020    6.1870  -23.3320 N.am   13  GLY13      -0.1940
     29  CA        19.7250    5.2400  -22.9910 C.3    13  GLY13       0.2014
     30  C         20.1360    4.0180  -22.1560 C.2    13  GLY13       0.2639
     31  O         19.2750    3.2080  -21.8130 O.2    13  GLY13      -0.2714
     32  N         21.4140    3.8590  -21.7980 N.am   14  ASN14      -0.1958
     33  CA        21.8990    2.6630  -21.0910 C.3    14  ASN14       0.1819
     34  C         21.4700    2.6610  -19.6170 C.2    14  ASN14       0.2622
     35  O         20.9790    1.6520  -19.1120 O.2    14  ASN14      -0.2715
     36  CB        23.4260    2.5590  -21.2420 C.3    14  ASN14       0.1195
     37  CG        23.8370    2.3430  -22.6930 C.2    14  ASN14       0.2630
     38  OD1       23.5140    1.3330  -23.3040 O.2    14  ASN14      -0.2716
     39  ND2       24.5540    3.2680  -23.2940 N.am   14  ASN14      -0.0877
     40  N         21.5680    3.8080  -18.9360 N.am   15  SER15      -0.1950
     41  CA        20.9890    3.9850  -17.5900 C.3    15  SER15       0.1924
     42  C         19.4570    3.9670  -17.6130 C.2    15  SER15       0.2314
     43  O         18.8380    3.4220  -16.7040 O.2    15  SER15      -0.2863
     44  CB        21.5280    5.2650  -16.9470 C.3    15  SER15       0.2116
     45  OG        21.5980    6.2950  -17.9100 O.3    15  SER15      -0.2180
     46  N         24.0560    8.9350  -15.1370 N.3    57  SER57      -0.1202
     47  CA        25.3590    8.7480  -15.7910 C.3    57  SER57       0.2020
     48  C         26.2040   10.0300  -15.7990 C.2    57  SER57       0.2619
     49  O         25.9880   10.8950  -14.9570 O.2    57  SER57      -0.2717
     50  CB        25.0990    8.1660  -17.1830 C.3    57  SER57       0.2103
     51  OG        24.3170    9.0440  -17.9680 O.3    57  SER57      -0.2182
     52  N         27.1900   10.1510  -16.6950 N.am   58  THR58      -0.1938
     53  CA        28.1850   11.2560  -16.7490 C.3    58  THR58       0.2028
     54  C         28.3820   11.7480  -18.1980 C.2    58  THR58       0.2643
     55  O         28.2050   10.9730  -19.1350 O.2    58  THR58      -0.2714
     56  CB        29.5200   10.7680  -16.1540 C.3    58  THR58       0.1808
     57  OG1       29.2950   10.2040  -14.8830 O.3    58  THR58      -0.2208
     58  CG2       30.5610   11.8560  -15.9240 C.3    58  THR58       0.0379
     59  N         28.7470   13.0240  -18.3990 N.am   59  THR59      -0.1936
     60  CA        28.9710   13.6470  -19.7220 C.3    59  THR59       0.2028
     61  C         30.0200   14.7670  -19.6520 C.2    59  THR59       0.2642
     62  O         30.5950   15.0180  -18.5930 O.2    59  THR59      -0.2714
     63  CB        27.6380   14.1530  -20.3060 C.3    59  THR59       0.1808
     64  OG1       27.7540   14.4230  -21.6760 O.3    59  THR59      -0.2208
     65  CG2       27.1470   15.4550  -19.6820 C.3    59  THR59       0.0379
     66  N         30.2640   15.4720  -20.7610 N.am   60  GLY60      -0.1954
     67  CA        31.2210   16.5800  -20.8790 C.3    60  GLY60       0.1869
     68  C         32.5890   16.3070  -20.2370 C.2    60  GLY60       0.2309
     69  O         33.1820   15.2430  -20.4190 O.2    60  GLY60      -0.2863
     70  N         33.0440   15.6010  -17.1760 N.3    62  GLY62      -0.1225
     71  CA        32.6460   14.9350  -15.9190 C.3    62  GLY62       0.1811
     72  C         31.3560   15.4760  -15.2790 C.2    62  GLY62       0.2280
     73  O         31.1100   15.2470  -14.0930 O.2    62  GLY62      -0.2866
     74  N         26.0210    4.8820  -13.7660 N.3    92  LEU92      -0.1231
     75  CA        26.4770    4.1110  -14.9220 C.3    92  LEU92       0.1693
     76  C         27.3950    4.9510  -15.8080 C.2    92  LEU92       0.2593
     77  O         27.0810    6.0930  -16.1340 O.2    92  LEU92      -0.2718
     78  CB        25.2070    3.6260  -15.6590 C.3    92  LEU92       0.0284
     79  CG        25.4390    2.6140  -16.8000 C.3    92  LEU92       0.0019
     80  CD1       24.2290    1.6900  -16.9350 C.3    92  LEU92       0.0001
     81  CD2       25.5840    3.3040  -18.1520 C.3    92  LEU92       0.0001
     82  N         28.5190    4.3790  -16.2240 N.am   93  GLY93      -0.1942
     83  CA        29.4630    5.0640  -17.0960 C.3    93  GLY93       0.2014
     84  C         30.6570    4.2080  -17.5000 C.2    93  GLY93       0.2638
     85  O         30.6620    2.9890  -17.3530 O.2    93  GLY93      -0.2714
     86  N         31.6710    4.8670  -18.0470 N.am   94  ASP94      -0.1971
     87  CA        32.8830    4.2460  -18.5750 C.3    94  ASP94       0.1709
     88  C         34.0280    4.3080  -17.5450 C.2    94  ASP94       0.2293
     89  O         34.4830    5.3900  -17.1660 O.2    94  ASP94      -0.2864
     90  CB        33.2390    4.9990  -19.8630 C.3    94  ASP94       0.1436
     91  CG        34.6130    4.6420  -20.4470 C.2    94  ASP94       0.3671
     92  OD1       35.1500    3.5520  -20.1300 O.co2  94  ASP94      -0.2456
     93  OD2       35.1430    5.4380  -21.2530 O.co2  94  ASP94      -0.2456
     94  N         38.2260    6.3490  -17.3800 N.3    97  TYR97      -0.1241
     95  CA        38.5500    7.7440  -17.0470 C.3    97  TYR97       0.1605
     96  C         38.2880    8.0970  -15.5700 C.2    97  TYR97       0.2264
     97  O         37.5180    7.4340  -14.8740 O.2    97  TYR97      -0.2867
     98  CB        37.7430    8.6670  -17.9770 C.3    97  TYR97       0.0534
     99  CG        38.1940    8.6480  -19.4260 C.ar   97  TYR97      -0.0201
    100  CD1       39.3800    9.3130  -19.8010 C.ar   97  TYR97      -0.0009
    101  CD2       37.4370    7.9580  -20.3940 C.ar   97  TYR97      -0.0009
    102  CE1       39.8060    9.2870  -21.1440 C.ar   97  TYR97       0.0417
    103  CE2       37.8650    7.9270  -21.7360 C.ar   97  TYR97       0.0417
    104  CZ        39.0520    8.5900  -22.1150 C.ar   97  TYR97       0.1957
    105  OH        39.4680    8.5640  -23.4110 O.3    97  TYR97      -0.2866
    106  N         36.7070   10.5430  -13.9220 N.3    99  ASN99      -0.1225
    107  CA        35.3300   10.9000  -13.5340 C.3    99  ASN99       0.1785
    108  C         34.3790    9.6880  -13.4850 C.2    99  ASN99       0.2597
    109  O         33.2180    9.8050  -13.8750 O.2    99  ASN99      -0.2718
    110  CB        34.7890   11.9970  -14.4780 C.3    99  ASN99       0.1169
    111  CG        35.5300   13.3140  -14.3290 C.2    99  ASN99       0.2627
    112  OD1       35.5270   13.9350  -13.2770 O.2    99  ASN99      -0.2716
    113  ND2       36.1710   13.7870  -15.3740 N.am   99  ASN99      -0.0877
    114  N         34.8360    8.4980  -13.0870 N.am  100  PHE100     -0.1962
    115  CA        33.9940    7.2990  -13.0510 C.3   100  PHE100      0.1771
    116  C         32.7160    7.5190  -12.2210 C.2   100  PHE100      0.2619
    117  O         32.7650    7.7450  -11.0090 O.2   100  PHE100     -0.2715
    118  CB        34.7860    6.0700  -12.5880 C.3   100  PHE100      0.0574
    119  CG        33.9570    4.8010  -12.6640 C.ar  100  PHE100     -0.0200
    120  CD1       33.3490    4.4390  -13.8840 C.ar  100  PHE100     -0.0042
    121  CD2       33.7400    4.0110  -11.5180 C.ar  100  PHE100     -0.0042
    122  CE1       32.5260    3.3040  -13.9600 C.ar  100  PHE100     -0.0003
    123  CE2       32.9140    2.8730  -11.5920 C.ar  100  PHE100     -0.0003
    124  CZ        32.2970    2.5290  -12.8090 C.ar  100  PHE100     -0.0000
    125  N         31.5730    7.4910  -12.9120 N.am  101  CYS101     -0.1968
    126  CA        30.2330    7.8360  -12.4280 C.3   101  CYS101      0.1712
    127  C         30.0840    9.2170  -11.7540 C.2   101  CYS101      0.2296
    128  O         29.1690    9.4090  -10.9540 O.2   101  CYS101     -0.2864
    129  CB        29.7200    6.6700  -11.5630 C.3   101  CYS101      0.0983
    130  SG        29.5090    5.1650  -12.5600 S.3   101  CYS101     -0.0798
    131  N         30.2040    0.2290  -17.8970 N.3   127  ALA127     -0.1231
    132  CA        29.6530   -0.1810  -19.1910 C.3   127  ALA127      0.1694
    133  C         30.6720   -0.6970  -20.2320 C.2   127  ALA127      0.2592
    134  O         30.3960   -1.6800  -20.9270 O.2   127  ALA127     -0.2718
    135  CB        28.8270    0.9880  -19.7390 C.3   127  ALA127      0.0304
    136  N         31.8570   -0.0800  -20.3120 N.am  128  SER128     -0.1952
    137  CA        32.9410   -0.4430  -21.2480 C.3   128  SER128      0.1924
    138  C         33.5130   -1.8600  -21.0590 C.2   128  SER128      0.2314
    139  O         34.1760   -2.3840  -21.9550 O.2   128  SER128     -0.2863
    140  CB        34.0930    0.5560  -21.1160 C.3   128  SER128      0.2116
    141  OG        33.6210    1.8630  -21.3580 O.3   128  SER128     -0.2180
@<TRIPOS>BOND
     1    24    22   ar
     2    24    26   ar
     3    27    26    1
     4    22    21   ar
     5    26    25   ar
     6    11    10    2
     7    19    18    2
     8    21    20    1
     9    21    23   ar
    10    25    23   ar
    11    17    20    1
    12    17    18    1
    13    17    16    1
    14    18    28   am
    15    10    16   am
    16    10     9    1
    17    15    14    1
    18    12     9    1
    19    12    13    1
    20   105   104    1
    21    28    29    1
    22     9     8    1
    23    38    37    2
    24    39    37   am
    25    29    30    1
    26    37    36    1
    27    14    13    1
    28    30    31    2
    29    30    32   am
    30   104   103   ar
    31   104   102   ar
    32   139   138    2
    33     8     3   am
    34    32    33    1
    35   103   101   ar
    36    64    63    1
    37   141   140    1
    38    93    91   ar
    39   137   140    1
    40   137   138    1
    41   137   136    1
    42    36    33    1
    43     4     3    2
    44   102   100   ar
    45    33    34    1
    46     3     2    1
    47   134   133    2
    48     6     5    1
    49    67    66    1
    50    67    68    1
    51    66    61   am
    52     7     5    1
    53    91    92   ar
    54    91    90    1
    55    69    68    2
    56   101    99   ar
    57   136   133   am
    58    63    60    1
    59    63    65    1
    60   133   132    1
    61     5     2    1
    62    90    87    1
    63   100    99   ar
    64     2     1    1
    65   135   132    1
    66    60    61    1
    67    60    59    1
    68    61    62    2
    69    34    35    2
    70    34    40   am
    71    99    98    1
    72   132   131    1
    73    55    54    2
    74    40    41    1
    75    87    86    1
    76    87    88    1
    77    59    54   am
    78    54    53    1
    79    81    79    1
    80    86    84   am
    81    98    95    1
    82    51    50    1
    83    45    44    1
    84    42    41    1
    85    42    43    2
    86    41    44    1
    87    88    89    2
    88    84    85    2
    89    84    83    1
    90    94    95    1
    91    50    47    1
    92    70    71    1
    93    83    82    1
    94    95    96    1
    95    80    79    1
    96    79    78    1
    97    53    52    1
    98    53    56    1
    99    52    48   am
   100    82    76   am
   101    56    58    1
   102    56    57    1
   103    77    76    2
   104    71    72    1
   105    76    75    1
   106    48    47    1
   107    48    49    2
   108    47    46    1
   109    78    75    1
   110    96    97    2
   111   113   111   am
   112    72    73    2
   113    75    74    1
   114   110   111    1
   115   110   107    1
   116   111   112    2
   117   122   120   ar
   118   122   124   ar
   119   106   107    1
   120   120   119   ar
   121   109   108    2
   122   107   108    1
   123   108   114   am
   124   114   115    1
   125   115   118    1
   126   115   116    1
   127   125   126    1
   128   125   116   am
   129   124   123   ar
   130   119   118    1
   131   119   121   ar
   132   130   129    1
   133   126   127    1
   134   126   129    1
   135   116   117    2
   136   127   128    2
   137   123   121   ar
