@<TRIPOS>MOLECULE
tmp/2m9pA00.pdb
 195 189 0 0 0
SMALL
GASTEIGER

@<TRIPOS>ATOM
      1  N          6.5990   14.1750    3.0210 N.3    39  MET39      -0.1230
      2  CA         6.7820   15.1460    4.1170 C.3    39  MET39       0.1702
      3  C          7.7890   14.5750    5.1220 C.2    39  MET39       0.2593
      4  O          8.1570   13.3980    5.0370 O.2    39  MET39      -0.2718
      5  CB         5.4470   15.4610    4.8600 C.3    39  MET39       0.0401
      6  CG         4.3570   16.1850    4.0500 C.3    39  MET39       0.0596
      7  SD         3.5490   15.1360    2.8190 S.3    39  MET39      -0.1393
      8  CE         2.8450   13.8610    3.8560 C.3    39  MET39       0.0692
      9  N          8.2440   15.4330    6.0420 N.am   40  SER40      -0.1952
     10  CA         9.0120   15.0500    7.2460 C.3    40  SER40       0.1924
     11  C          8.7160   16.0710    8.3500 C.2    40  SER40       0.2314
     12  O          7.8820   16.9680    8.1540 O.2    40  SER40      -0.2863
     13  CB        10.5320   14.9670    6.9460 C.3    40  SER40       0.2116
     14  OG        10.8450   13.8880    6.0670 O.3    40  SER40      -0.2180
     15  N         14.1050   15.0710    9.4760 N.3    44  GLU44      -0.1231
     16  CA        13.8010   13.7950   10.1500 C.3    44  GLU44       0.1699
     17  C         14.7090   12.6640    9.6190 C.2    44  GLU44       0.2592
     18  O         15.1040   12.6620    8.4420 O.2    44  GLU44      -0.2718
     19  CB        12.3040   13.4470    9.9380 C.3    44  GLU44       0.0402
     20  CG        11.7800   12.2810   10.7960 C.3    44  GLU44       0.1161
     21  CD        10.2970   11.9740   10.5410 C.2    44  GLU44       0.3649
     22  OE1        9.4840   12.9170   10.5750 O.co2  44  GLU44      -0.2457
     23  OE2        9.9520   10.8010   10.2680 O.co2  44  GLU44      -0.2457
     24  N         15.0250   11.7080   10.5150 N.am   45  GLU45      -0.1966
     25  CA        15.8240   10.5090   10.2000 C.3    45  GLU45       0.1733
     26  C         14.9320    9.3840    9.6330 C.2    45  GLU45       0.2616
     27  O         13.7060    9.5380    9.5290 O.2    45  GLU45      -0.2715
     28  CB        16.5710   10.0370   11.4810 C.3    45  GLU45       0.0429
     29  CG        17.6180   11.0460   11.9940 C.3    45  GLU45       0.1163
     30  CD        18.3930   10.5560   13.2300 C.2    45  GLU45       0.3649
     31  OE1       17.8630   10.6600   14.3490 O.co2  45  GLU45      -0.2457
     32  OE2       19.5350   10.0560   13.0840 O.co2  45  GLU45      -0.2457
     33  N         15.5650    8.2550    9.2730 N.am   46  GLU46      -0.1963
     34  CA        14.8820    7.1060    8.6510 C.3    46  GLU46       0.1733
     35  C         15.6290    5.7970    8.9740 C.2    46  GLU46       0.2616
     36  O         16.8630    5.7900    9.0740 O.2    46  GLU46      -0.2715
     37  CB        14.7820    7.3310    7.1180 C.3    46  GLU46       0.0429
     38  CG        14.0300    6.2260    6.3500 C.3    46  GLU46       0.1163
     39  CD        13.7890    6.5750    4.8750 C.2    46  GLU46       0.3649
     40  OE1       14.6500    6.2560    4.0170 O.co2  46  GLU46      -0.2457
     41  OE2       12.7200    7.1520    4.5590 O.co2  46  GLU46      -0.2457
     42  N         14.8670    4.6950    9.1260 N.am   47  GLU47      -0.1963
     43  CA        15.4090    3.3650    9.4500 C.3    47  GLU47       0.1733
     44  C         14.6840    2.2810    8.6260 C.2    47  GLU47       0.2616
     45  O         13.4860    2.4180    8.3200 O.2    47  GLU47      -0.2715
     46  CB        15.2200    3.0800   10.9660 C.3    47  GLU47       0.0429
     47  CG        15.8480    1.7530   11.4540 C.3    47  GLU47       0.1163
     48  CD        15.3720    1.3290   12.8490 C.2    47  GLU47       0.3649
     49  OE1       15.9320    1.8110   13.8530 O.co2  47  GLU47      -0.2457
     50  OE2       14.4240    0.5110   12.9440 O.co2  47  GLU47      -0.2457
     51  N         15.4190    1.2020    8.2930 N.am   48  GLN48      -0.1963
     52  CA        14.8520   -0.0130    7.6770 C.3    48  GLN48       0.1733
     53  C         14.0090   -0.7860    8.7110 C.2    48  GLN48       0.2617
     54  O         14.3170   -0.7840    9.9100 O.2    48  GLN48      -0.2715
     55  CB        15.9750   -0.9410    7.1290 C.3    48  GLN48       0.0408
     56  CG        16.9270   -1.5000    8.2140 C.3    48  GLN48       0.0908
     57  CD        17.9970   -2.4600    7.6920 C.2    48  GLN48       0.2608
     58  OE1       17.7800   -3.1880    6.7290 O.2    48  GLN48      -0.2717
     59  NE2       19.1600   -2.4680    8.3230 N.am   48  GLN48      -0.0878
     60  N         12.9500   -1.4320    8.2310 N.am   49  THR49      -0.1951
     61  CA        12.0550   -2.2460    9.0630 C.3    49  THR49       0.1897
     62  C         12.6980   -3.6220    9.3910 C.2    49  THR49       0.2313
     63  O         12.5840   -4.1070   10.5230 O.2    49  THR49      -0.2863
     64  CB        10.6880   -2.4330    8.3310 C.3    49  THR49       0.1794
     65  OG1       10.1360   -1.1410    8.0070 O.3    49  THR49      -0.2208
     66  CG2        9.6790   -3.2290    9.1730 C.3    49  THR49       0.0378
     67  N         11.6870   -2.5050    3.9600 N.3    97  ILE97      -0.1231
     68  CA        11.6550   -1.0300    3.8570 C.3    97  ILE97       0.1692
     69  C         10.2200   -0.4610    3.7830 C.2    97  ILE97       0.2592
     70  O         10.0240    0.7330    4.0070 O.2    97  ILE97      -0.2718
     71  CB        12.5770   -0.5160    2.6580 C.3    97  ILE97       0.0266
     72  CG1       12.5770   -1.4920    1.4220 C.3    97  ILE97       0.0019
     73  CG2       14.0290   -0.2770    3.1460 C.3    97  ILE97       0.0020
     74  CD1       11.2740   -1.6240    0.6580 C.3    97  ILE97       0.0001
     75  N          9.2240   -1.3090    3.4850 N.am   98  GLY98      -0.1957
     76  CA         7.8300   -0.8580    3.4100 C.3    98  GLY98       0.1869
     77  C          6.8470   -2.0090    3.4150 C.2    98  GLY98       0.2309
     78  O          7.1700   -3.1080    3.8920 O.2    98  GLY98      -0.2863
     79  N          7.6860    5.4690   -2.3400 N.3   112  HIS112     -0.1226
     80  CA         8.8390    5.7800   -1.4440 C.3   112  HIS112      0.1752
     81  C          9.3870    4.5550   -0.6880 C.2   112  HIS112      0.2596
     82  O         10.2720    4.7220    0.1610 O.2   112  HIS112     -0.2718
     83  CB         8.5210    6.9490   -0.4450 C.3   112  HIS112      0.0759
     84  CG         7.4910    6.6940    0.6560 C.ar  112  HIS112      0.0818
     85  ND1        6.4610    7.5750    0.9320 N.ar  112  HIS112     -0.2268
     86  CD2        7.3690    5.7020    1.5800 C.ar  112  HIS112      0.1154
     87  CE1        5.7650    7.1450    1.9690 C.ar  112  HIS112      0.1986
     88  NE2        6.2930    6.0050    2.3850 N.ar  112  HIS112     -0.2212
     89  N          8.8420    3.3410   -0.9510 N.am  113  VAL113     -0.1966
     90  CA         9.3740    2.0950   -0.3530 C.3   113  VAL113      0.1727
     91  C         10.8950    1.9600   -0.6350 C.2   113  VAL113      0.2616
     92  O         11.6640    1.5940    0.2570 O.2   113  VAL113     -0.2715
     93  CB         8.5840    0.8000   -0.8070 C.3   113  VAL113      0.0290
     94  CG1        7.1240    0.8170   -0.2820 C.3   113  VAL113      0.0023
     95  CG2        8.6180    0.6040   -2.3420 C.3   113  VAL113      0.0023
     96  N         11.3150    2.3220   -1.8670 N.am  114  THR114     -0.1951
     97  CA        12.7410    2.5050   -2.2080 C.3   114  THR114      0.1897
     98  C         12.8700    3.6090   -3.2930 C.2   114  THR114      0.2313
     99  O         13.0950    4.7760   -2.9710 O.2   114  THR114     -0.2863
    100  CB        13.4480    1.1720   -2.6670 C.3   114  THR114      0.1794
    101  OG1       13.1370    0.0980   -1.7610 O.3   114  THR114     -0.2208
    102  CG2       14.9760    1.3320   -2.7270 C.3   114  THR114      0.0378
    103  N          6.4040   -4.0570   12.6690 N.3   163  PRO163     -0.2116
    104  CA         7.7010   -4.4210   12.0250 C.3   163  PRO163      0.1372
    105  C          8.1710   -5.8620   12.3350 C.2   163  PRO163      0.2244
    106  O          8.5200   -6.1690   13.4790 O.2   163  PRO163     -0.2868
    107  CB         8.6890   -3.3700   12.6180 C.3   163  PRO163      0.0268
    108  CG         7.8260   -2.2000   12.9710 C.3   163  PRO163      0.0207
    109  CD         6.5280   -2.8000   13.4600 C.3   163  PRO163      0.0892
    110  N          3.8220    3.5970   14.7960 N.3   193  PRO193     -0.2102
    111  CA         3.5310    3.4730   13.3420 C.3   193  PRO193      0.1504
    112  C          3.7020    2.0310   12.8170 C.2   193  PRO193      0.2576
    113  O          4.6280    1.3160   13.2230 O.2   193  PRO193     -0.2718
    114  CB         4.5700    4.4230   12.6820 C.3   193  PRO193      0.0282
    115  CG         5.6520    4.5710   13.7050 C.3   193  PRO193      0.0208
    116  CD         4.9540    4.5340   15.0360 C.3   193  PRO193      0.0893
    117  N          2.7910    1.6200   11.9190 N.am  194  GLY194     -0.1943
    118  CA         2.9560    0.3840   11.1570 C.3   194  GLY194      0.2014
    119  C          3.8250    0.6130    9.9210 C.2   194  GLY194      0.2640
    120  O          4.3390    1.7230    9.7190 O.2   194  GLY194     -0.2714
    121  N          3.9920   -0.4230    9.0920 N.am  195  THR195     -0.1936
    122  CA         4.7730   -0.3250    7.8410 C.3   195  THR195      0.2028
    123  C          3.9520    0.3890    6.7360 C.2   195  THR195      0.2642
    124  O          2.7780    0.0470    6.5140 O.2   195  THR195     -0.2714
    125  CB         5.2390   -1.7450    7.3720 C.3   195  THR195      0.1808
    126  OG1        4.1040   -2.6140    7.2060 O.3   195  THR195     -0.2208
    127  CG2        6.2130   -2.3820    8.3820 C.3   195  THR195      0.0379
    128  N          4.5720    1.3800    6.0600 N.am  196  SER196     -0.1949
    129  CA         3.9100    2.2020    5.0270 C.3   196  SER196      0.1924
    130  C          3.4950    1.3130    3.8410 C.2   196  SER196      0.2314
    131  O          4.3330    0.9050    3.0230 O.2   196  SER196     -0.2863
    132  CB         4.8440    3.3580    4.5910 C.3   196  SER196      0.2116
    133  OG         5.6970    3.7430    5.7050 O.3   196  SER196     -0.2180
    134  N         -2.3220    2.7920    3.9050 N.3   211  TYR211     -0.1227
    135  CA        -1.8090    3.7220    4.9250 C.3   211  TYR211      0.1736
    136  C         -0.3130    3.9740    4.6640 C.2   211  TYR211      0.2596
    137  O          0.4950    3.0490    4.7760 O.2   211  TYR211     -0.2718
    138  CB        -2.0790    3.0960    6.3630 C.3   211  TYR211      0.0548
    139  CG        -1.0170    3.3520    7.4620 C.ar  211  TYR211     -0.0200
    140  CD1       -1.0090    4.5180    8.2210 C.ar  211  TYR211     -0.0009
    141  CD2       -0.0130    2.4050    7.7230 C.ar  211  TYR211     -0.0009
    142  CE1       -0.0440    4.7340    9.1830 C.ar  211  TYR211      0.0417
    143  CE2        0.9450    2.6220    8.6860 C.ar  211  TYR211      0.0417
    144  CZ         0.9310    3.7850    9.4120 C.ar  211  TYR211      0.1957
    145  OH         1.8910    4.0000   10.3700 O.3   211  TYR211     -0.2866
    146  N          0.0430    5.1830    4.1930 N.am  212  GLY212     -0.1957
    147  CA         1.3920    5.6930    4.4000 C.3   212  GLY212      0.1869
    148  C          1.7120    6.9660    3.6410 C.2   212  GLY212      0.2309
    149  O          2.5830    6.9680    2.7830 O.2   212  GLY212     -0.2863
    150  N          2.8940   10.3040    5.1640 N.3   214  GLY214     -0.1210
    151  CA         3.2950   11.1140    6.2980 C.3   214  GLY214      0.1956
    152  C          4.4840   10.5050    7.0190 C.2   214  GLY214      0.2612
    153  O          5.2820    9.7780    6.4050 O.2   214  GLY214     -0.2717
    154  N          4.5930   10.7850    8.3280 N.am  215  VAL215     -0.1965
    155  CA         5.8140   10.5100    9.1240 C.3   215  VAL215      0.1727
    156  C          5.4730   10.2800   10.6050 C.2   215  VAL215      0.2616
    157  O          4.2990   10.2300   10.9830 O.2   215  VAL215     -0.2715
    158  CB         6.8330   11.7120    9.0460 C.3   215  VAL215      0.0290
    159  CG1        7.4740   11.8460    7.6590 C.3   215  VAL215      0.0023
    160  CG2        6.1830   13.0480    9.4850 C.3   215  VAL215      0.0023
    161  N          6.5270   10.1470   11.4410 N.am  216  VAL216     -0.1977
    162  CA         6.3900   10.2510   12.8930 C.3   216  VAL216      0.1596
    163  C          6.4690   11.7470   13.2710 C.2   216  VAL216      0.2287
    164  O          7.4980   12.4030   13.0970 O.2   216  VAL216     -0.2864
    165  CB         7.4730    9.3900   13.6610 C.3   216  VAL216      0.0276
    166  CG1        7.2040    7.8860   13.4630 C.3   216  VAL216      0.0022
    167  CG2        8.9240    9.7360   13.2480 C.3   216  VAL216      0.0022
    168  N          7.0710   13.5900   18.2420 N.3   219  SER219     -0.1202
    169  CA         8.2480   12.8120   18.6750 C.3   219  SER219      0.2020
    170  C          7.9760   11.2940   18.5080 C.2   219  SER219      0.2619
    171  O          8.5860   10.4690   19.1950 O.2   219  SER219     -0.2717
    172  CB         8.5980   13.1660   20.1460 C.3   219  SER219      0.2103
    173  OG         9.8300   12.5820   20.5460 O.3   219  SER219     -0.2182
    174  N          7.0760   10.9340   17.5670 N.am  220  GLY220     -0.1956
    175  CA         6.7110    9.5240   17.3200 C.3   220  GLY220      0.1869
    176  C          5.2270    9.3180   17.0060 C.2   220  GLY220      0.2309
    177  O          4.8190    8.2010   16.6560 O.2   220  GLY220     -0.2863
    178  N          2.4400    9.0040   14.9180 N.3   222  TYR222     -0.1241
    179  CA         2.3590    8.6960   13.4850 C.3   222  TYR222      0.1605
    180  C          1.1600    9.4180   12.8340 C.2   222  TYR222      0.2264
    181  O          0.0170    9.3230   13.2990 O.2   222  TYR222     -0.2867
    182  CB         2.3120    7.1610   13.2260 C.3   222  TYR222      0.0534
    183  CG         0.9510    6.4620   13.4160 C.ar  222  TYR222     -0.0201
    184  CD1        0.5240    6.0260   14.6660 C.ar  222  TYR222     -0.0009
    185  CD2        0.0950    6.2390   12.3310 C.ar  222  TYR222     -0.0009
    186  CE1       -0.6920    5.4010   14.8240 C.ar  222  TYR222      0.0417
    187  CE2       -1.1250    5.6150   12.4930 C.ar  222  TYR222      0.0417
    188  CZ        -1.5120    5.1990   13.7420 C.ar  222  TYR222      0.1957
    189  OH        -2.7260    4.5770   13.9170 O.3   222  TYR222     -0.2866
    190  N         -0.2980    9.6850    8.9550 N.3   224  SER224     -0.1217
    191  CA        -0.2660    9.2550    7.5390 C.3   224  SER224      0.1889
    192  C         -1.6730    9.3220    6.9300 C.2   224  SER224      0.2288
    193  O         -2.6520    8.9920    7.6040 O.2   224  SER224     -0.2866
    194  CB         0.3120    7.8300    7.4140 C.3   224  SER224      0.2089
    195  OG         1.6660    7.7720    7.8370 O.3   224  SER224     -0.2183
@<TRIPOS>BOND
     1    98    99    2
     2    98    97    1
     3   102   100    1
     4   100    97    1
     5   100   101    1
     6    95    93    1
     7    79    80    1
     8    97    96    1
     9    96    91   am
    10    80    81    1
    11    80    83    1
    12    89    81   am
    13    89    90    1
    14    93    90    1
    15    93    94    1
    16    81    82    2
    17    91    90    1
    18    91    92    2
    19    83    84    1
    20    84    85   ar
    21    84    86   ar
    22    74    72    1
    23    85    87   ar
    24    72    71    1
    25    86    88   ar
    26    87    88   ar
    27    71    73    1
    28    71    68    1
    29   149   148    2
    30     7     8    1
    31     7     6    1
    32     1     2    1
    33   131   130    2
    34    76    77    1
    35    76    75    1
    36    77    78    2
    37    75    69   am
    38   148   147    1
    39    69    68    1
    40    69    70    2
    41   130   129    1
    42    68    67    1
    43   134   135    1
    44    40    39   ar
    45     6     5    1
    46     2     5    1
    47     2     3    1
    48   146   147    1
    49   146   136   am
    50    41    39   ar
    51   132   129    1
    52   132   133    1
    53   136   137    2
    54   136   135    1
    55    39    38    1
    56   135   138    1
    57   129   128    1
    58     4     3    2
    59     3     9   am
    60   150   151    1
    61     9    10    1
    62   128   123   am
    63    14    13    1
    64   151   152    1
    65    38    37    1
    66   138   139    1
    67   153   152    2
    68   124   123    2
    69    58    57    2
    70   123   122    1
    71   192   191    1
    72   192   193    2
    73    13    10    1
    74   152   154   am
    75    37    34    1
    76    55    52    1
    77    55    56    1
    78   126   125    1
    79    10    11    1
    80   125   122    1
    81   125   127    1
    82   194   191    1
    83   194   195    1
    84   139   141   ar
    85   139   140   ar
    86   191   190    1
    87   159   158    1
    88    52    51    1
    89    52    53    1
    90    57    56    1
    91    57    59   am
    92   141   143   ar
    93   122   121    1
    94    65    64    1
    95    12    11    2
    96   140   142   ar
    97    60    53   am
    98    60    61    1
    99    51    44   am
   100    45    44    2
   101   154   155    1
   102    64    61    1
   103    64    66    1
   104    18    17    2
   105    44    43    1
   106    34    35    1
   107    34    33    1
   108   143   144   ar
   109    53    54    2
   110    35    36    2
   111    35    42   am
   112   158   155    1
   113   158   160    1
   114    61    62    1
   115   121   119   am
   116   155   156    1
   117    42    43    1
   118   142   144   ar
   119    33    26   am
   120    62    63    2
   121   144   145    1
   122    43    46    1
   123    15    16    1
   124    27    26    2
   125    17    16    1
   126    17    24   am
   127    26    25    1
   128   120   119    2
   129   119   118    1
   130    19    16    1
   131    19    20    1
   132    25    24    1
   133    25    28    1
   134    23    21   ar
   135    21    22   ar
   136    21    20    1
   137   156   157    2
   138   156   161   am
   139    46    47    1
   140   118   117    1
   141   161   162    1
   142    47    48    1
   143    28    29    1
   144   117   112   am
   145    29    30    1
   146   104   105    1
   147   104   107    1
   148   104   103    1
   149   185   187   ar
   150   185   183   ar
   151   105   106    2
   152   187   188   ar
   153   107   108    1
   154   103   109    1
   155   114   111    1
   156   114   115    1
   157   112   113    2
   158   112   111    1
   159   180   181    2
   160   180   179    1
   161    48    50   ar
   162    48    49   ar
   163   162   163    1
   164   162   165    1
   165   108   109    1
   166    32    30   ar
   167   164   163    2
   168   182   183    1
   169   182   179    1
   170    30    31   ar
   171   167   165    1
   172   111   110    1
   173   183   184   ar
   174   166   165    1
   175   179   178    1
   176   115   116    1
   177   188   189    1
   178   188   186   ar
   179   184   186   ar
   180   110   116    1
   181   177   176    2
   182   176   175    1
   183   175   174    1
   184   174   170   am
   185   168   169    1
   186   170   169    1
   187   170   171    2
   188   169   172    1
   189   172   173    1
