@<TRIPOS>MOLECULE
tmp/2manA00.pdb
 109 110 0 0 0
SMALL
GASTEIGER

@<TRIPOS>ATOM
      1  N          1.1850   -2.0920   27.6780 N.3    30  TRP30      -0.1227
      2  CA        -0.1990   -2.4630   27.4010 C.3    30  TRP30       0.1737
      3  C         -0.4840   -2.5820   25.9360 C.2    30  TRP30       0.2595
      4  O         -1.5290   -3.0950   25.5410 O.2    30  TRP30      -0.2718
      5  CB        -1.1740   -1.4680   28.0810 C.3    30  TRP30       0.0564
      6  CG        -0.8170   -1.3380   29.5460 C.ar   30  TRP30       0.0003
      7  CD1       -0.5670   -2.3530   30.4080 C.ar   30  TRP30       0.0946
      8  CD2       -0.6870   -0.1160   30.2970 C.ar   30  TRP30       0.0152
      9  NE1       -0.2570   -1.8410   31.6710 N.ar   30  TRP30      -0.2442
     10  CE2       -0.3350   -0.4690   31.6070 C.ar   30  TRP30       0.0810
     11  CE3       -0.8030    1.2300   29.9640 C.ar   30  TRP30       0.0012
     12  CZ2       -0.0970    0.4710   32.6150 C.ar   30  TRP30       0.0191
     13  CZ3       -0.5840    2.1900   30.9540 C.ar   30  TRP30       0.0001
     14  CH2       -0.2280    1.8000   32.2480 C.ar   30  TRP30       0.0015
     15  N          0.4150   -1.9870   25.1030 N.am   31  TYR31      -0.1976
     16  CA         0.1990   -2.0180   23.6590 C.3    31  TYR31       0.1639
     17  C          1.4720   -2.3680   22.9330 C.2    31  TYR31       0.2290
     18  O          1.9950   -1.5630   22.1690 O.2    31  TYR31      -0.2864
     19  CB        -0.3260   -0.6440   23.1670 C.3    31  TYR31       0.0560
     20  CG        -1.6910   -0.2580   23.6700 C.ar   31  TYR31      -0.0198
     21  CD1       -2.8840   -0.6450   23.0500 C.ar   31  TYR31      -0.0009
     22  CD2       -1.7950    0.5000   24.8440 C.ar   31  TYR31      -0.0009
     23  CE1       -4.1170   -0.2820   23.5720 C.ar   31  TYR31       0.0417
     24  CE2       -3.0150    0.8450   25.3790 C.ar   31  TYR31       0.0417
     25  CZ        -4.1790    0.4730   24.7210 C.ar   31  TYR31       0.1957
     26  OH        -5.3900    0.8690   25.2600 O.3    31  TYR31      -0.2866
     27  N          2.0440   -6.2710   38.7320 N.3    58  ARG58      -0.1231
     28  CA         0.6530   -6.0120   38.3730 C.3    58  ARG58       0.1694
     29  C          0.3550   -6.3510   36.9230 C.2    58  ARG58       0.2592
     30  O         -0.7740   -6.8100   36.6860 O.2    58  ARG58      -0.2718
     31  CB         0.3260   -4.5520   38.7110 C.3    58  ARG58       0.0321
     32  CG        -1.0830   -4.4250   39.2660 C.3    58  ARG58       0.0489
     33  CD        -1.3710   -2.9800   39.6740 C.3    58  ARG58       0.2205
     34  NE        -2.6690   -2.6300   39.1190 N.pl3  58  ARG58      -0.0865
     35  CZ        -3.1850   -1.4290   38.9750 C.cat  58  ARG58       0.5346
     36  NH1       -2.4990   -0.3620   39.3490 N.pl3  58  ARG58       0.1354
     37  NH2       -4.3890   -1.3230   38.4260 N.pl3  58  ARG58       0.1354
     38  N          1.2560   -6.1360   35.9800 N.am   59  TRP59      -0.1976
     39  CA         0.9740   -6.4520   34.5620 C.3    59  TRP59       0.1640
     40  C          1.9730   -7.5140   34.1320 C.2    59  TRP59       0.2290
     41  O          2.6070   -8.1020   35.0290 O.2    59  TRP59      -0.2864
     42  CB         1.0360   -5.1770   33.7070 C.3    59  TRP59       0.0576
     43  CG        -0.0810   -4.2270   34.0670 C.ar   59  TRP59       0.0006
     44  CD1       -1.3960   -4.4020   33.7190 C.ar   59  TRP59       0.0946
     45  CD2       -0.0350   -3.0640   34.8860 C.ar   59  TRP59       0.0152
     46  NE1       -2.1570   -3.4070   34.2340 N.ar   59  TRP59      -0.2442
     47  CE2       -1.3470   -2.5670   34.9670 C.ar   59  TRP59       0.0810
     48  CE3        1.0030   -2.3890   35.5450 C.ar   59  TRP59       0.0012
     49  CZ2       -1.6820   -1.4060   35.6770 C.ar   59  TRP59       0.0191
     50  CZ3        0.6670   -1.2630   36.2660 C.ar   59  TRP59       0.0001
     51  CH2       -0.6430   -0.7750   36.3170 C.ar   59  TRP59       0.0015
     52  N          5.6350    0.7800   35.9600 N.3    86  HIS86      -0.1241
     53  CA         4.3380    1.3340   36.3200 C.3    86  HIS86       0.1621
     54  C          3.6520    0.6430   37.4820 C.2    86  HIS86       0.2264
     55  O          2.7670    1.2190   38.1010 O.2    86  HIS86      -0.2867
     56  CB         3.3690    1.2300   35.1250 C.3    86  HIS86       0.0745
     57  CG         2.3860    2.3760   35.1080 C.ar   86  HIS86       0.0817
     58  ND1        2.7930    3.6080   34.6240 N.ar   86  HIS86      -0.2268
     59  CD2        1.1010    2.5060   35.5180 C.ar   86  HIS86       0.1154
     60  CE1        1.7640    4.4350   34.6880 C.ar   86  HIS86       0.1986
     61  NE2        0.7570    3.8020   35.2480 N.ar   86  HIS86      -0.2212
     62  N          2.4810    2.1650   41.1690 N.3    89  THR89      -0.1218
     63  CA         1.4380    3.1720   41.2550 C.3    89  THR89       0.1862
     64  C          0.4980    3.0500   42.4390 C.2    89  THR89       0.2287
     65  O         -0.2080    2.0340   42.5460 O.2    89  THR89      -0.2866
     66  CB         0.6150    3.2290   39.9400 C.3    89  THR89       0.1770
     67  OG1        1.4870    3.4480   38.8030 O.3    89  THR89      -0.2211
     68  CG2       -0.4030    4.3490   40.0410 C.3    89  THR89       0.0375
     69  N          0.9800   13.2810   29.2790 N.3   250  TRP250     -0.1241
     70  CA         0.3500   11.9420   29.2720 C.3   250  TRP250      0.1605
     71  C         -0.8980   12.0460   28.3950 C.2   250  TRP250      0.2264
     72  O         -1.6820   12.9480   28.6730 O.2   250  TRP250     -0.2867
     73  CB        -0.0690   11.5680   30.7270 C.3   250  TRP250      0.0550
     74  CG        -0.6470   10.1760   30.7900 C.ar  250  TRP250      0.0003
     75  CD1       -1.9680    9.8710   30.5720 C.ar  250  TRP250      0.0946
     76  CD2        0.0110    8.9320   31.0600 C.ar  250  TRP250      0.0152
     77  NE1       -2.1700    8.5040   30.6890 N.ar  250  TRP250     -0.2442
     78  CE2       -0.9610    7.9140   30.9790 C.ar  250  TRP250      0.0810
     79  CE3        1.3260    8.5670   31.3400 C.ar  250  TRP250      0.0012
     80  CZ2       -0.6560    6.5600   31.1540 C.ar  250  TRP250      0.0191
     81  CZ3        1.6210    7.2300   31.5570 C.ar  250  TRP250      0.0001
     82  CH2        0.6390    6.2270   31.4470 C.ar  250  TRP250      0.0015
     83  N         -4.4810    5.3200   23.6720 N.3   254  GLY254     -0.1210
     84  CA        -4.8780    4.1170   24.3620 C.3   254  GLY254      0.1956
     85  C         -5.2700    4.2500   25.8090 C.2   254  GLY254      0.2612
     86  O         -5.2490    3.2390   26.5210 O.2   254  GLY254     -0.2717
     87  N         -5.6240    5.5260   26.2570 N.am  255  ASN255     -0.1960
     88  CA        -6.0650    5.6310   27.6440 C.3   255  ASN255      0.1819
     89  C         -7.3800    4.8610   27.8150 C.2   255  ASN255      0.2622
     90  O         -8.2400    4.9610   26.9460 O.2   255  ASN255     -0.2715
     91  CB        -6.3310    7.1010   28.0070 C.3   255  ASN255      0.1195
     92  CG        -4.9840    7.7140   28.4020 C.2   255  ASN255      0.2630
     93  OD1       -4.4400    7.3480   29.4270 O.2   255  ASN255     -0.2716
     94  ND2       -4.4750    8.5720   27.5540 N.am  255  ASN255     -0.0877
     95  N         -7.5730    4.2640   28.9110 N.am  256  GLY256     -0.1940
     96  CA        -8.8410    3.5980   29.2440 C.3   256  GLY256      0.2014
     97  C         -9.2470    4.2440   30.5900 C.2   256  GLY256      0.2639
     98  O         -8.9430    5.4170   30.8860 O.2   256  GLY256     -0.2714
     99  N         -9.9250    3.4760   31.4190 N.am  257  GLY257     -0.1954
    100  CA       -10.3530    3.8220   32.7310 C.3   257  GLY257      0.1869
    101  C        -10.8760    5.2110   33.0040 C.2   257  GLY257      0.2309
    102  O        -10.5500    5.7930   34.0510 O.2   257  GLY257     -0.2863
    103  N        -10.1050    8.0980   31.5700 N.3   259  VAL259     -0.1245
    104  CA        -9.3160    9.2230   31.0820 C.3   259  VAL259      0.1561
    105  C         -8.9960    9.1880   29.6120 C.2   259  VAL259      0.2260
    106  O         -7.9040    9.6230   29.2060 O.2   259  VAL259     -0.2867
    107  CB        -8.0220    9.4130   31.9010 C.3   259  VAL259      0.0252
    108  CG1       -8.3950    9.8040   33.3290 C.3   259  VAL259      0.0019
    109  CG2       -7.1760    8.1530   31.8500 C.3   259  VAL259      0.0019
@<TRIPOS>BOND
     1    18    17    2
     2    17    16    1
     3    21    23   ar
     4    21    20   ar
     5    19    16    1
     6    19    20    1
     7    23    25   ar
     8    16    15    1
     9    20    22   ar
    10    83    84    1
    11    84    85    1
    12    25    26    1
    13    25    24   ar
    14    22    24   ar
    15    15     3   am
    16     4     3    2
    17    85    87   am
    18    85    86    2
    19     3     2    1
    20    87    88    1
    21    90    89    2
    22     2     1    1
    23     2     5    1
    24    94    92   am
    25    88    89    1
    26    88    91    1
    27    89    95   am
    28    91    92    1
    29     5     6    1
    30    71    72    2
    31    71    70    1
    32    92    93    2
    33    95    96    1
    34   106   105    2
    35    96    97    1
    36    70    69    1
    37    70    73    1
    38     6     8   ar
    39     6     7   ar
    40   105   104    1
    41    11     8   ar
    42    11    13   ar
    43     8    10   ar
    44     7     9   ar
    45    75    77   ar
    46    75    74   ar
    47    97    98    2
    48    97    99   am
    49    77    78   ar
    50    73    74    1
    51    74    76   ar
    52    13    14   ar
    53    78    76   ar
    54    78    80   ar
    55    76    79   ar
    56   104   103    1
    57   104   107    1
    58    80    82   ar
    59    79    81   ar
    60    99   100    1
    61    82    81   ar
    62    10     9   ar
    63    10    12   ar
    64   109   107    1
    65   107   108    1
    66    14    12   ar
    67   100   101    1
    68   101   102    2
    69    42    43    1
    70    42    39    1
    71    44    43   ar
    72    44    46   ar
    73    43    45   ar
    74    40    39    1
    75    40    41    2
    76    46    47   ar
    77    39    38    1
    78    58    60   ar
    79    58    57   ar
    80    60    61   ar
    81    45    47   ar
    82    45    48   ar
    83    47    49   ar
    84    57    56    1
    85    57    59   ar
    86    56    53    1
    87    61    59   ar
    88    48    50   ar
    89    49    51   ar
    90    52    53    1
    91    38    29   am
    92    50    51   ar
    93    53    54    1
    94    30    29    2
    95    29    28    1
    96    54    55    2
    97    28    31    1
    98    28    27    1
    99    37    35    1
   100    31    32    1
   101    67    66    1
   102    35    34    2
   103    35    36    1
   104    34    33    1
   105    32    33    1
   106    66    68    1
   107    66    63    1
   108    62    63    1
   109    63    64    1
   110    64    65    2
