@<TRIPOS>MOLECULE
tmp/2masC00.pdb
 159 151 0 0 0
SMALL
GASTEIGER

@<TRIPOS>ATOM
      1  N         73.3650   -1.4840   80.3790 N.3    13  ASP13      -0.1225
      2  CA        74.4430   -2.4310   80.6030 C.3    13  ASP13       0.1805
      3  C         75.2670   -2.2430   81.8490 C.2    13  ASP13       0.2597
      4  O         75.7890   -3.2140   82.3840 O.2    13  ASP13      -0.2718
      5  CB        75.3280   -2.6460   79.3550 C.3    13  ASP13       0.1424
      6  CG        76.0250   -1.4070   78.8930 C.2    13  ASP13       0.3668
      7  OD1       75.3700   -0.3730   78.8460 O.co2  13  ASP13      -0.2456
      8  OD2       77.2280   -1.4760   78.5420 O.co2  13  ASP13      -0.2456
      9  N         75.3620   -1.0160   82.3540 N.am   14  ASP14      -0.1974
     10  CA        76.1250   -0.7900   83.5860 C.3    14  ASP14       0.1709
     11  C         75.4460   -1.5640   84.7030 C.2    14  ASP14       0.2293
     12  O         76.1250   -2.1100   85.5590 O.2    14  ASP14      -0.2864
     13  CB        76.1670    0.6890   83.9840 C.3    14  ASP14       0.1436
     14  CG        76.9680    1.5260   83.0200 C.2    14  ASP14       0.3671
     15  OD1       76.3830    1.9730   82.0200 O.co2  14  ASP14      -0.2456
     16  OD2       78.1810    1.7280   83.2610 O.co2  14  ASP14      -0.2456
     17  N         75.7250    8.2460   79.9720 N.3    38  ASN38      -0.1240
     18  CA        74.5020    7.7550   79.4100 C.3    38  ASN38       0.1653
     19  C         73.3930    8.7260   79.6700 C.2    38  ASN38       0.2266
     20  O         72.5840    8.9760   78.8030 O.2    38  ASN38      -0.2867
     21  CB        74.1950    6.3460   79.9050 C.3    38  ASN38       0.1155
     22  CG        75.0700    5.2900   79.2290 C.2    38  ASN38       0.2627
     23  OD1       75.5810    4.3800   79.8800 O.2    38  ASN38      -0.2716
     24  ND2       75.2760    5.4290   77.9280 N.am   38  ASN38      -0.0877
     25  N         73.5090    9.9350   76.1180 N.3    77  ALA77      -0.1245
     26  CA        72.9810    8.9110   75.2150 C.3    77  ALA77       0.1562
     27  C         71.5980    8.4370   75.6410 C.2    77  ALA77       0.2260
     28  O         71.3570    7.2040   75.7650 O.2    77  ALA77      -0.2867
     29  CB        73.9270    7.7310   75.1760 C.3    77  ALA77       0.0290
     30  N         69.3890    5.7890   73.6840 N.3    80  ILE80      -0.1231
     31  CA        69.6910    4.3700   73.8470 C.3    80  ILE80       0.1692
     32  C         69.1480    3.8580   75.1920 C.2    80  ILE80       0.2592
     33  O         68.5170    2.8060   75.2490 O.2    80  ILE80      -0.2718
     34  CB        71.2140    4.1190   73.7940 C.3    80  ILE80       0.0266
     35  CG1       71.7850    4.6710   72.4840 C.3    80  ILE80       0.0019
     36  CG2       71.5220    2.6320   73.9160 C.3    80  ILE80       0.0020
     37  CD1       71.1960    4.0350   71.2350 C.3    80  ILE80       0.0001
     38  N         69.3280    4.6520   76.2510 N.am   81  HIS81      -0.1976
     39  CA        68.9030    4.2500   77.5900 C.3    81  HIS81       0.1656
     40  C         67.6370    4.8890   78.1330 C.2    81  HIS81       0.2291
     41  O         67.3060    4.7140   79.3070 O.2    81  HIS81      -0.2864
     42  CB        70.0670    4.4250   78.5580 C.3    81  HIS81       0.0771
     43  CG        71.3310    3.7800   78.0720 C.ar   81  HIS81       0.0820
     44  ND1       71.7190    2.5150   78.4670 N.ar   81  HIS81      -0.2267
     45  CD2       72.3270    4.2500   77.2720 C.ar   81  HIS81       0.1154
     46  CE1       72.8960    2.2330   77.9300 C.ar   81  HIS81       0.1986
     47  NE2       73.2850    3.2690   77.2000 N.ar   81  HIS81      -0.2212
     48  N         83.4710    2.0070   83.4780 N.3   125  THR125     -0.1218
     49  CA        82.6080    1.5750   82.3940 C.3   125  THR125      0.1862
     50  C         81.7720    2.7730   81.8480 C.2   125  THR125      0.2287
     51  O         80.6780    2.5840   81.2450 O.2   125  THR125     -0.2866
     52  CB        81.7020    0.4000   82.8230 C.3   125  THR125      0.1770
     53  OG1       80.6920    0.8460   83.7410 O.3   125  THR125     -0.2211
     54  CG2       82.5220   -0.7040   83.4920 C.3   125  THR125      0.0375
     55  N         85.8580   -0.3250   80.0450 N.3   151  MET151     -0.1245
     56  CA        85.0850   -0.6700   78.8750 C.3   151  MET151      0.1570
     57  C         85.0500    0.6450   78.0880 C.2   151  MET151      0.2261
     58  O         84.5880    1.6650   78.5930 O.2   151  MET151     -0.2867
     59  CB        83.6700   -1.0710   79.2540 C.3   151  MET151      0.0387
     60  CG        82.7700   -1.5270   78.0560 C.3   151  MET151      0.0595
     61  SD        82.2680   -0.2470   76.8960 S.3   151  MET151     -0.1393
     62  CE        83.1500   -0.7050   75.5420 C.3   151  MET151      0.0692
     63  N         81.0750    3.5160   67.3680 N.3   159  ASN159     -0.1240
     64  CA        79.6250    3.4930   67.3970 C.3   159  ASN159      0.1653
     65  C         79.0950    4.9130   67.3950 C.2   159  ASN159      0.2266
     66  O         78.2060    5.2230   66.6180 O.2   159  ASN159     -0.2867
     67  CB        79.0380    2.6220   68.5480 C.3   159  ASN159      0.1155
     68  CG        79.4990    3.0290   69.9510 C.2   159  ASN159      0.2627
     69  OD1       80.3410    3.8950   70.1350 O.2   159  ASN159     -0.2716
     70  ND2       78.9410    2.3590   70.9540 N.am  159  ASN159     -0.0877
     71  N         84.2650    5.4180   69.9120 N.3   165  GLU165     -0.1231
     72  CA        83.3290    4.8200   70.8480 C.3   165  GLU165      0.1699
     73  C         82.8420    5.8680   71.8260 C.2   165  GLU165      0.2592
     74  O         83.6270    6.6290   72.3400 O.2   165  GLU165     -0.2718
     75  CB        84.0340    3.6740   71.5670 C.3   165  GLU165      0.0402
     76  CG        83.1610    2.8560   72.4980 C.3   165  GLU165      0.1161
     77  CD        83.0640    3.4520   73.8710 C.2   165  GLU165      0.3649
     78  OE1       84.0840    3.9230   74.3590 O.co2 165  GLU165     -0.2457
     79  OE2       81.9850    3.4620   74.4630 O.co2 165  GLU165     -0.2457
     80  N         81.5590    5.8330   72.1470 N.am  166  PHE166     -0.1962
     81  CA        80.8950    6.7650   73.0570 C.3   166  PHE166      0.1771
     82  C         81.6470    7.1780   74.3310 C.2   166  PHE166      0.2619
     83  O         81.9110    8.3640   74.5250 O.2   166  PHE166     -0.2715
     84  CB        79.5100    6.2230   73.3950 C.3   166  PHE166      0.0574
     85  CG        78.7050    7.1290   74.2480 C.ar  166  PHE166     -0.0200
     86  CD1       78.7720    7.0320   75.6330 C.ar  166  PHE166     -0.0042
     87  CD2       77.8540    8.0760   73.6760 C.ar  166  PHE166     -0.0042
     88  CE1       77.9970    7.8820   76.4670 C.ar  166  PHE166     -0.0003
     89  CE2       77.0690    8.9400   74.4770 C.ar  166  PHE166     -0.0003
     90  CZ        77.1400    8.8360   75.8870 C.ar  166  PHE166     -0.0000
     91  N         82.0070    6.2230   75.1950 N.am  167  ASN167     -0.1972
     92  CA        82.7140    6.5370   76.4360 C.3   167  ASN167      0.1688
     93  C         83.9570    7.3730   76.2370 C.2   167  ASN167      0.2292
     94  O         84.3110    8.1780   77.0990 O.2   167  ASN167     -0.2864
     95  CB        83.1530    5.2670   77.1740 C.3   167  ASN167      0.1181
     96  CG        82.0000    4.5120   77.7940 C.2   167  ASN167      0.2629
     97  OD1       80.8370    4.9390   77.7480 O.2   167  ASN167     -0.2716
     98  ND2       82.3170    3.3770   78.3910 N.am  167  ASN167     -0.0877
     99  N         84.8470   -2.0530   71.7620 N.3   190  LEU190     -0.1245
    100  CA        83.7460   -2.5620   70.9670 C.3   190  LEU190      0.1561
    101  C         84.1410   -3.8050   70.1480 C.2   190  LEU190      0.2260
    102  O         83.2900   -4.6190   69.8050 O.2   190  LEU190     -0.2867
    103  CB        83.2640   -1.4740   70.0150 C.3   190  LEU190      0.0270
    104  CG        82.5680   -0.2690   70.6090 C.3   190  LEU190      0.0019
    105  CD1       82.2710    0.6900   69.4880 C.3   190  LEU190      0.0001
    106  CD2       81.2860   -0.7010   71.2710 C.3   190  LEU190      0.0001
    107  N         66.6840   -2.7670   75.9970 N.3   224  TYR224     -0.1241
    108  CA        68.0000   -2.6280   75.3710 C.3   224  TYR224      0.1605
    109  C         67.9640   -3.3240   74.0000 C.2   224  TYR224      0.2264
    110  O         68.4350   -2.7710   72.9910 O.2   224  TYR224     -0.2867
    111  CB        69.0510   -3.2940   76.2930 C.3   224  TYR224      0.0534
    112  CG        70.5090   -2.9530   76.0290 C.ar  224  TYR224     -0.0201
    113  CD1       70.8830   -1.6860   75.5890 C.ar  224  TYR224     -0.0009
    114  CD2       71.5160   -3.9020   76.2220 C.ar  224  TYR224     -0.0009
    115  CE1       72.2260   -1.3740   75.3390 C.ar  224  TYR224      0.0417
    116  CE2       72.8430   -3.5980   75.9830 C.ar  224  TYR224      0.0417
    117  CZ        73.1920   -2.3380   75.5380 C.ar  224  TYR224      0.1957
    118  OH        74.5070   -2.0470   75.2630 O.3   224  TYR224     -0.2866
    119  N         68.6660   -1.7030   70.1230 N.3   228  TYR228     -0.1241
    120  CA        69.7240   -2.2190   69.2360 C.3   228  TYR228      0.1605
    121  C         69.1920   -2.7580   67.9060 C.2   228  TYR228      0.2264
    122  O         69.8060   -2.5480   66.8660 O.2   228  TYR228     -0.2867
    123  CB        70.5690   -3.3010   69.9460 C.3   228  TYR228      0.0534
    124  CG        71.9350   -2.8110   70.3940 C.ar  228  TYR228     -0.0201
    125  CD1       72.1010   -2.1110   71.6090 C.ar  228  TYR228     -0.0009
    126  CD2       73.0550   -2.9860   69.5790 C.ar  228  TYR228     -0.0009
    127  CE1       73.3710   -1.5870   71.9920 C.ar  228  TYR228      0.0417
    128  CE2       74.3210   -2.4670   69.9490 C.ar  228  TYR228      0.0417
    129  CZ        74.4670   -1.7660   71.1510 C.ar  228  TYR228      0.1957
    130  OH        75.6830   -1.2130   71.4830 O.3   228  TYR228     -0.2866
    131  N         70.7220    1.3070   66.3990 N.3   232  ARG232     -0.1245
    132  CA        72.0600    0.9520   65.9300 C.3   232  ARG232      0.1563
    133  C         72.1290   -0.5550   65.6320 C.2   232  ARG232      0.2260
    134  O         72.7270   -1.3340   66.3810 O.2   232  ARG232     -0.2867
    135  CB        73.0960    1.3810   66.9770 C.3   232  ARG232      0.0307
    136  CG        72.6650    2.6090   67.7840 C.3   232  ARG232      0.0489
    137  CD        73.8440    3.4280   68.2980 C.3   232  ARG232      0.2205
    138  NE        74.2390    4.4760   67.3540 N.pl3 232  ARG232     -0.0865
    139  CZ        74.9720    5.5450   67.6680 C.cat 232  ARG232      0.5346
    140  NH1       75.4110    5.7280   68.9130 N.pl3 232  ARG232      0.1354
    141  NH2       75.2430    6.4550   66.7360 N.pl3 232  ARG232      0.1354
    142  N         77.9640   -4.5370   76.8170 N.3   240  HIS240     -0.1226
    143  CA        79.3620   -4.1730   77.0040 C.3   240  HIS240      0.1752
    144  C         80.0120   -4.2090   78.3770 C.2   240  HIS240      0.2596
    145  O         81.0440   -4.8450   78.5540 O.2   240  HIS240     -0.2718
    146  CB        79.6440   -2.7760   76.4200 C.3   240  HIS240      0.0759
    147  CG        79.0100   -2.5190   75.0930 C.ar  240  HIS240      0.0818
    148  ND1       77.7490   -1.9700   74.9710 N.ar  240  HIS240     -0.2268
    149  CD2       79.4610   -2.7140   73.8300 C.ar  240  HIS240      0.1154
    150  CE1       77.4560   -1.8410   73.6910 C.ar  240  HIS240      0.1986
    151  NE2       78.4790   -2.2830   72.9780 N.ar  240  HIS240     -0.2212
    152  N         79.4610   -3.4350   79.3080 N.am  241  ASP241     -0.1974
    153  CA        80.0690   -3.2940   80.6230 C.3   241  ASP241      0.1709
    154  C         80.4580   -4.5290   81.4610 C.2   241  ASP241      0.2293
    155  O         81.5790   -4.5970   81.9830 O.2   241  ASP241     -0.2864
    156  CB        79.3390   -2.2180   81.3910 C.3   241  ASP241      0.1436
    157  CG        79.3990   -0.8810   80.6760 C.2   241  ASP241      0.3671
    158  OD1       80.2960   -0.7030   79.8300 O.co2 241  ASP241     -0.2456
    159  OD2       78.5520   -0.0090   80.9440 O.co2 241  ASP241     -0.2456
@<TRIPOS>BOND
     1   133   132    1
     2   133   134    2
     3   132   131    1
     4   132   135    1
     5    66    65    2
     6   141   139    1
     7   122   121    2
     8   135   136    1
     9   138   139    2
    10   138   137    1
    11    63    64    1
    12    65    64    1
    13    64    67    1
    14   139   140    1
    15   136   137    1
    16   121   120    1
    17    67    68    1
    18   120   123    1
    19   120   119    1
    20   105   104    1
    21   126   128   ar
    22   126   124   ar
    23   102   101    2
    24    71    72    1
    25   123   124    1
    26   128   129   ar
    27    68    69    2
    28    68    70   am
    29   103   104    1
    30   103   100    1
    31   101   100    1
    32   124   125   ar
    33   104   106    1
    34    72    75    1
    35    72    73    1
    36   100    99    1
    37   129   130    1
    38   129   127   ar
    39    37    35    1
    40    75    76    1
    41   125   127   ar
    42    73    80   am
    43    73    74    2
    44    80    81    1
    45    35    34    1
    46    76    77    1
    47   151   150   ar
    48   151   149   ar
    49   110   109    2
    50    81    84    1
    51    81    82    1
    52    84    85    1
    53    87    85   ar
    54    87    89   ar
    55    30    31    1
    56   150   148   ar
    57    34    31    1
    58    34    36    1
    59   149   147   ar
    60    31    32    1
    61    77    78   ar
    62    77    79   ar
    63   109   108    1
    64    85    86   ar
    65    82    83    2
    66    82    91   am
    67    89    90   ar
    68   148   147   ar
    69   147   146    1
    70    29    26    1
    71    32    33    2
    72    32    38   am
    73    91    92    1
    74    26    27    1
    75    26    25    1
    76   118   117    1
    77   115   117   ar
    78   115   113   ar
    79   108   107    1
    80   108   111    1
    81   117   116   ar
    82    62    61    1
    83   113   112   ar
    84    86    88   ar
    85    27    28    2
    86    90    88   ar
    87   116   114   ar
    88   112   114   ar
    89   112   111    1
    90    93    92    1
    91    93    94    2
    92    38    39    1
    93   146   143    1
    94    92    95    1
    95   142   143    1
    96    61    60    1
    97   143   144    1
    98    95    96    1
    99    47    45   ar
   100    47    46   ar
   101    45    43   ar
   102    39    40    1
   103    39    42    1
   104    97    96    2
   105    96    98   am
   106    24    22   am
   107    46    44   ar
   108    60    59    1
   109    43    44   ar
   110    43    42    1
   111    57    58    2
   112    57    56    1
   113    40    41    2
   114   144   145    2
   115   144   152   am
   116     8     6   ar
   117    20    19    2
   118     7     6   ar
   119    56    59    1
   120    56    55    1
   121     6     5    1
   122    22    23    2
   123    22    21    1
   124   152   153    1
   125     5     2    1
   126    18    19    1
   127    18    21    1
   128    18    17    1
   129   158   157   ar
   130     1     2    1
   131     2     3    1
   132   153   156    1
   133   153   154    1
   134   157   159   ar
   135   157   156    1
   136    51    50    2
   137   154   155    2
   138    50    49    1
   139     3     9   am
   140     3     4    2
   141    15    14   ar
   142     9    10    1
   143    49    52    1
   144    49    48    1
   145    52    54    1
   146    52    53    1
   147    14    16   ar
   148    14    13    1
   149    10    13    1
   150    10    11    1
   151    11    12    2
