@<TRIPOS>MOLECULE
tmp/2mc0A01.pdb
 130 127 0 0 0
SMALL
GASTEIGER

@<TRIPOS>ATOM
      1  N        113.4700   18.1500   -1.2600 N.3     2  ILE2       -0.1245
      2  CA       114.2380   17.6920   -0.1080 C.3     2  ILE2        0.1561
      3  C        115.0760   18.8240    0.4880 C.2     2  ILE2        0.2260
      4  O        115.9530   19.3860   -0.1680 O.2     2  ILE2       -0.2867
      5  CB       115.1440   16.4980   -0.4790 C.3     2  ILE2        0.0252
      6  CG1      114.3000   15.2420   -0.7360 C.3     2  ILE2        0.0019
      7  CG2      116.1730   16.2400    0.6130 C.3     2  ILE2        0.0019
      8  CD1      113.7020   14.6370    0.5160 C.3     2  ILE2        0.0001
      9  N        120.5370    9.7680    6.5000 N.3    13  PHE13      -0.1241
     10  CA       120.7250    8.5390    5.7030 C.3    13  PHE13       0.1605
     11  C        122.1550    8.0160    5.8280 C.2    13  PHE13       0.2264
     12  O        122.3850    6.8150    5.9680 O.2    13  PHE13      -0.2867
     13  CB       120.4290    8.8200    4.2370 C.3    13  PHE13       0.0534
     14  CG       119.1310    9.5310    4.0200 C.ar   13  PHE13      -0.0203
     15  CD1      117.9330    8.8630    4.1700 C.ar   13  PHE13      -0.0042
     16  CD2      119.1140   10.8700    3.6740 C.ar   13  PHE13      -0.0042
     17  CE1      116.7320    9.5150    3.9760 C.ar   13  PHE13      -0.0003
     18  CE2      117.9160   11.5310    3.4780 C.ar   13  PHE13      -0.0003
     19  CZ       116.7230   10.8510    3.6280 C.ar   13  PHE13      -0.0000
     20  N        123.9250    8.7030    1.5150 N.3    16  PHE16      -0.1241
     21  CA       122.9430    8.7550    0.4360 C.3    16  PHE16       0.1605
     22  C        122.5960   10.1950    0.0630 C.2    16  PHE16       0.2264
     23  O        122.0800   10.9590    0.8790 O.2    16  PHE16      -0.2867
     24  CB       121.6840    7.9840    0.8360 C.3    16  PHE16       0.0534
     25  CG       120.4260    8.4830    0.1810 C.ar   16  PHE16      -0.0203
     26  CD1      119.7510    9.5670    0.7130 C.ar   16  PHE16      -0.0042
     27  CD2      119.9250    7.8810   -0.9590 C.ar   16  PHE16      -0.0042
     28  CE1      118.5970   10.0440    0.1240 C.ar   16  PHE16      -0.0003
     29  CE2      118.7700    8.3520   -1.5550 C.ar   16  PHE16      -0.0003
     30  CZ       118.1040    9.4370   -1.0110 C.ar   16  PHE16      -0.0000
     31  N        120.3090   12.4040   -2.4760 N.3    18  PRO18      -0.2116
     32  CA       119.1800   12.3700   -3.4140 C.3    18  PRO18       0.1372
     33  C        119.3990   13.2180   -4.6660 C.2    18  PRO18       0.2244
     34  O        118.9480   12.8510   -5.7490 O.2    18  PRO18      -0.2868
     35  CB       118.0090   12.9110   -2.5870 C.3    18  PRO18       0.0268
     36  CG       118.6430   13.7650   -1.5450 C.3    18  PRO18       0.0207
     37  CD       119.9720   13.1280   -1.2330 C.3    18  PRO18       0.0892
     38  N        106.7100   10.7610   -5.2450 N.3    38  SER38      -0.1217
     39  CA       107.7850   11.1270   -4.3280 C.3    38  SER38       0.1889
     40  C        108.0090   12.6420   -4.3850 C.2    38  SER38       0.2288
     41  O        107.9620   13.3220   -3.3620 O.2    38  SER38      -0.2866
     42  CB       109.0640   10.3780   -4.6870 C.3    38  SER38       0.2089
     43  OG       110.1210   10.7130   -3.8050 O.3    38  SER38      -0.2183
     44  N        106.9860   14.8050   -1.2460 N.3    42  THR42      -0.1218
     45  CA       108.2350   15.1550   -0.5860 C.3    42  THR42       0.1862
     46  C        108.4070   16.6620   -0.4940 C.2    42  THR42       0.2287
     47  O        109.0140   17.1690    0.4490 O.2    42  THR42      -0.2866
     48  CB       109.4310   14.5470   -1.3120 C.3    42  THR42       0.1770
     49  OG1      110.6170   14.7530   -0.5680 O.3    42  THR42      -0.2211
     50  CG2      109.6580   15.1350   -2.6830 C.3    42  THR42       0.0375
     51  N        111.6620   12.6350    7.4260 N.3    50  TRP50      -0.1241
     52  CA       112.6200   11.6380    6.9650 C.3    50  TRP50       0.1605
     53  C        113.2480   10.8620    8.1170 C.2    50  TRP50       0.2264
     54  O        113.3970    9.6470    8.0370 O.2    50  TRP50      -0.2867
     55  CB       113.7100   12.2890    6.1200 C.3    50  TRP50       0.0550
     56  CG       113.2300   12.7570    4.7800 C.ar   50  TRP50       0.0003
     57  CD1      113.4350   13.9850    4.2350 C.ar   50  TRP50       0.0946
     58  CD2      112.4870   12.0060    3.8070 C.ar   50  TRP50       0.0152
     59  NE1      112.8620   14.0560    2.9900 N.ar   50  TRP50      -0.2442
     60  CE2      112.2770   12.8520    2.7030 C.ar   50  TRP50       0.0810
     61  CE3      111.9780   10.7050    3.7600 C.ar   50  TRP50       0.0012
     62  CZ2      111.5840   12.4390    1.5680 C.ar   50  TRP50       0.0191
     63  CZ3      111.2890   10.2980    2.6330 C.ar   50  TRP50       0.0001
     64  CH2      111.0990   11.1620    1.5510 C.ar   50  TRP50       0.0015
     65  N        111.0860    8.3960    9.5890 N.3    53  ILE53      -0.1231
     66  CA       111.0380    7.3350    8.5920 C.3    53  ILE53       0.1692
     67  C        112.2960    6.4720    8.6490 C.2    53  ILE53       0.2591
     68  O        112.2110    5.2500    8.7470 O.2    53  ILE53      -0.2718
     69  CB       110.8810    7.9310    7.1760 C.3    53  ILE53       0.0266
     70  CG1      109.4200    8.3130    6.8860 C.3    53  ILE53       0.0019
     71  CG2      111.3830    6.9550    6.1180 C.3    53  ILE53       0.0020
     72  CD1      108.7040    9.0530    8.0020 C.3    53  ILE53       0.0001
     73  N        113.4640    7.1010    8.5950 N.am   54  GLN54      -0.1979
     74  CA       114.7100    6.3520    8.6530 C.3    54  GLN54       0.1601
     75  C        114.7130    5.4730    9.8820 C.2    54  GLN54       0.2287
     76  O        115.0170    4.2820    9.8090 O.2    54  GLN54      -0.2864
     77  CB       115.9090    7.2910    8.6400 C.3    54  GLN54       0.0394
     78  CG       116.0640    7.9870    7.3100 C.3    54  GLN54       0.0908
     79  CD       116.2460    7.0120    6.1640 C.2    54  GLN54       0.2608
     80  OE1      117.2350    6.2810    6.1060 O.2    54  GLN54      -0.2717
     81  NE2      115.2850    6.9890    5.2480 N.am   54  GLN54      -0.0878
     82  N        106.1280    2.0900    3.9680 N.3    90  ILE90      -0.1245
     83  CA       106.8260    2.5950    2.7870 C.3    90  ILE90       0.1561
     84  C        105.8780    3.3100    1.8140 C.2    90  ILE90       0.2260
     85  O        106.2380    4.3270    1.2210 O.2    90  ILE90      -0.2867
     86  CB       107.5910    1.4680    2.0520 C.3    90  ILE90       0.0252
     87  CG1      108.8950    2.0130    1.4640 C.3    90  ILE90       0.0019
     88  CG2      106.7360    0.8370    0.9600 C.3    90  ILE90       0.0019
     89  CD1      109.6260    1.0270    0.5800 C.3    90  ILE90       0.0001
     90  N        105.0270    6.8390    2.7580 N.3    93  ASN93      -0.1225
     91  CA       106.1130    7.8230    2.7730 C.3    93  ASN93       0.1785
     92  C        106.5420    8.2310    1.3690 C.2    93  ASN93       0.2597
     93  O        107.2150    9.2460    1.1940 O.2    93  ASN93      -0.2718
     94  CB       107.3170    7.2760    3.5400 C.3    93  ASN93       0.1169
     95  CG       107.0090    7.0430    5.0050 C.2    93  ASN93       0.2627
     96  OD1      106.5520    7.9450    5.7060 O.2    93  ASN93      -0.2716
     97  ND2      107.2730    5.8320    5.4800 N.am   93  ASN93      -0.0877
     98  N        106.1530    7.4480    0.3700 N.am   94  HIS94      -0.1961
     99  CA       106.5120    7.7650   -1.0130 C.3    94  HIS94       0.1787
    100  C        105.3190    7.6430   -1.9600 C.2    94  HIS94       0.2620
    101  O        105.0110    8.5870   -2.6890 O.2    94  HIS94      -0.2715
    102  CB       107.6810    6.9010   -1.4950 C.3    94  HIS94       0.0785
    103  CG       107.4610    5.4300   -1.3600 C.ar   94  HIS94       0.0821
    104  ND1      106.2580    4.8490   -1.6650 N.ar   94  HIS94      -0.2267
    105  CD2      108.3300    4.4700   -0.9770 C.ar   94  HIS94       0.1154
    106  CE1      106.4180    3.5580   -1.4620 C.ar   94  HIS94       0.1986
    107  NE2      107.6590    3.2790   -1.0480 N.ar   94  HIS94      -0.2212
    108  N        104.6410    6.4950   -1.9580 N.am   95  TYR95      -0.1974
    109  CA       103.4890    6.3180   -2.8390 C.3    95  TYR95       0.1639
    110  C        102.7260    5.0310   -2.5500 C.2    95  TYR95       0.2290
    111  O        103.3230    3.9980   -2.2550 O.2    95  TYR95      -0.2864
    112  CB       103.9350    6.2910   -4.3020 C.3    95  TYR95       0.0560
    113  CG       104.8150    5.1110   -4.6510 C.ar   95  TYR95      -0.0198
    114  CD1      106.1490    5.0910   -4.2810 C.ar   95  TYR95      -0.0009
    115  CD2      104.3090    4.0190   -5.3440 C.ar   95  TYR95      -0.0009
    116  CE1      106.9610    4.0210   -4.5920 C.ar   95  TYR95       0.0417
    117  CE2      105.1150    2.9400   -5.6590 C.ar   95  TYR95       0.0417
    118  CZ       106.4400    2.9470   -5.2810 C.ar   95  TYR95       0.1957
    119  OH       107.2470    1.8760   -5.5930 O.3    95  TYR95      -0.2866
    120  N        121.4100    0.6140   -3.5140 N.3   115  PHE115     -0.1241
    121  CA       120.3850    0.3320   -2.5240 C.3   115  PHE115      0.1605
    122  C        120.8800   -0.6850   -1.5010 C.2   115  PHE115      0.2264
    123  O        120.7450   -0.4950   -0.2940 O.2   115  PHE115     -0.2867
    124  CB       119.1560   -0.2520   -3.2320 C.3   115  PHE115      0.0534
    125  CG       118.3520    0.7710   -3.9910 C.ar  115  PHE115     -0.0203
    126  CD1      117.4070    1.5410   -3.3340 C.ar  115  PHE115     -0.0042
    127  CD2      118.5400    0.9690   -5.3520 C.ar  115  PHE115     -0.0042
    128  CE1      116.6660    2.4860   -4.0150 C.ar  115  PHE115     -0.0003
    129  CE2      117.8000    1.9130   -6.0380 C.ar  115  PHE115     -0.0003
    130  CZ       116.8620    2.6720   -5.3690 C.ar  115  PHE115     -0.0000
@<TRIPOS>BOND
     1   129   130   ar
     2   129   127   ar
     3    34    33    2
     4   117   115   ar
     5   117   118   ar
     6   119   118    1
     7   130   128   ar
     8   127   125   ar
     9   115   113   ar
    10   118   116   ar
    11    38    39    1
    12    42    39    1
    13    42    43    1
    14    33    32    1
    15   113   112    1
    16   113   114   ar
    17   116   114   ar
    18    40    39    1
    19    40    41    2
    20   112   109    1
    21   128   126   ar
    22   125   126   ar
    23   125   124    1
    24   120   121    1
    25    32    35    1
    26    32    31    1
    27   124   121    1
    28   109   110    1
    29   109   108    1
    30   101   100    2
    31    50    48    1
    32    35    36    1
    33   110   111    2
    34   121   122    1
    35    31    37    1
    36   100   108   am
    37   100    99    1
    38   104   106   ar
    39   104   103   ar
    40    29    30   ar
    41    29    27   ar
    42    36    37    1
    43   122   123    2
    44   102   103    1
    45   102    99    1
    46   106   107   ar
    47   103   105   ar
    48    48    45    1
    49    48    49    1
    50     1     2    1
    51    44    45    1
    52   107   105   ar
    53    99    98    1
    54    30    28   ar
    55    27    25   ar
    56     6     5    1
    57     6     8    1
    58    45    46    1
    59    46    47    2
    60     5     2    1
    61     5     7    1
    62     4     3    2
    63     2     3    1
    64    22    21    1
    65    22    23    2
    66    28    26   ar
    67    25    26   ar
    68    25    24    1
    69    98    92   am
    70    21    24    1
    71    21    20    1
    72    89    87    1
    73    88    86    1
    74    93    92    2
    75    85    84    2
    76    92    91    1
    77    87    86    1
    78    64    62   ar
    79    64    63   ar
    80    62    60   ar
    81    84    83    1
    82    86    83    1
    83    63    61   ar
    84    60    59   ar
    85    60    58   ar
    86    90    91    1
    87    91    94    1
    88    83    82    1
    89    59    57   ar
    90    18    19   ar
    91    18    16   ar
    92    94    95    1
    93    19    17   ar
    94    16    14   ar
    95    61    58   ar
    96    58    56   ar
    97    17    15   ar
    98    14    15   ar
    99    14    13    1
   100    57    56   ar
   101    13    10    1
   102    56    55    1
   103    95    97   am
   104    95    96    2
   105    81    79   am
   106    10    11    1
   107    10     9    1
   108    11    12    2
   109    80    79    2
   110    71    69    1
   111    55    52    1
   112    79    78    1
   113    70    69    1
   114    70    72    1
   115    52    51    1
   116    52    53    1
   117    69    66    1
   118    78    77    1
   119    54    53    2
   120    66    67    1
   121    66    65    1
   122    73    67   am
   123    73    74    1
   124    77    74    1
   125    67    68    2
   126    74    75    1
   127    76    75    2
