@<TRIPOS>MOLECULE
tmp/2mc6A00.pdb
 150 143 0 0 0
SMALL
GASTEIGER

@<TRIPOS>ATOM
      1  N          7.1030  -13.6900    7.1280 N.3     1  MET1       -0.1230
      2  CA         5.7300  -13.3110    7.5300 C.3     1  MET1        0.1702
      3  C          5.5090  -11.8190    7.3190 C.2     1  MET1        0.2592
      4  O          6.0480  -10.9900    8.0510 O.2     1  MET1       -0.2718
      5  CB         5.4860  -13.6750    8.9970 C.3     1  MET1        0.0401
      6  CG         4.1080  -13.2750    9.5050 C.3     1  MET1        0.0596
      7  SD         3.8550  -13.7000   11.2400 S.3     1  MET1       -0.1393
      8  CE         5.2150  -12.8210   12.0060 C.3     1  MET1        0.0692
      9  N          4.7250  -11.4830    6.3050 N.am    2  ASN2       -0.1960
     10  CA         4.4120  -10.0950    5.9980 C.3     2  ASN2        0.1819
     11  C          2.9090   -9.8870    6.0570 C.2     2  ASN2        0.2621
     12  O          2.1590  -10.4070    5.2280 O.2     2  ASN2       -0.2715
     13  CB         4.9420   -9.7080    4.6170 C.3     2  ASN2        0.1195
     14  CG         6.4470   -9.9030    4.4790 C.2     2  ASN2        0.2630
     15  OD1        6.9500  -10.2080    3.3980 O.2     2  ASN2       -0.2716
     16  ND2        7.1800   -9.7270    5.5690 N.am    2  ASN2       -0.0877
     17  N          2.4780   -9.1320    7.0450 N.am    3  GLU3       -0.1977
     18  CA         1.0600   -8.9320    7.2950 C.3     3  GLU3        0.1602
     19  C          0.5740   -7.6520    6.6350 C.2     3  GLU3        0.2287
     20  O          1.3680   -6.7660    6.3180 O.2     3  GLU3       -0.2864
     21  CB         0.7980   -8.8740    8.7980 C.3     3  GLU3        0.0415
     22  CG         1.1550  -10.1560    9.5300 C.3     3  GLU3        0.1163
     23  CD         1.0200  -10.0170   11.0280 C.2     3  GLU3        0.3649
     24  OE1       -0.1130  -10.1410   11.5440 O.co2   3  GLU3       -0.2457
     25  OE2        2.0430   -9.7710   11.7000 O.co2   3  GLU3       -0.2457
     26  N         -1.9470   -4.2600    6.7680 N.3     5  THR5       -0.1203
     27  CA        -2.6190   -3.3340    7.6570 C.3     5  THR5        0.1994
     28  C         -3.1100   -2.1460    6.8340 C.2     5  THR5        0.2618
     29  O         -2.5780   -1.8920    5.7530 O.2     5  THR5       -0.2717
     30  CB        -1.6590   -2.8710    8.7780 C.3     5  THR5        0.1784
     31  OG1       -1.2990   -3.9890    9.6000 O.3     5  THR5       -0.2211
     32  CG2       -2.2750   -1.7820    9.6420 C.3     5  THR5        0.0376
     33  N         -4.1550   -1.4700    7.3020 N.am    6  GLN6       -0.1965
     34  CA        -4.6890   -0.3070    6.6000 C.3     6  GLN6        0.1733
     35  C         -3.5960    0.7210    6.3360 C.2     6  GLN6        0.2616
     36  O         -2.8330    1.0780    7.2360 O.2     6  GLN6       -0.2715
     37  CB        -5.8250    0.3290    7.3990 C.3     6  GLN6        0.0408
     38  CG        -7.0850   -0.5180    7.4410 C.3     6  GLN6        0.0908
     39  CD        -8.1690    0.0960    8.3030 C.2     6  GLN6        0.2608
     40  OE1       -8.2500    1.3160    8.4450 O.2     6  GLN6       -0.2717
     41  NE2       -9.0110   -0.7420    8.8790 N.am    6  GLN6       -0.0878
     42  N         -3.5130    1.1710    5.0910 N.am    7  ILE7       -0.1963
     43  CA        -2.4890    2.1180    4.6770 C.3     7  ILE7        0.1727
     44  C         -2.7340    3.5110    5.2520 C.2     7  ILE7        0.2616
     45  O         -3.3490    4.3630    4.6100 O.2     7  ILE7       -0.2715
     46  CB        -2.3960    2.2020    3.1410 C.3     7  ILE7        0.0290
     47  CG1       -2.0210    0.8350    2.5670 C.3     7  ILE7        0.0022
     48  CG2       -1.3830    3.2520    2.7270 C.3     7  ILE7        0.0023
     49  CD1       -1.8980    0.8180    1.0610 C.3     7  ILE7        0.0001
     50  N         -2.2420    3.7080    6.4700 N.am    8  SER8       -0.1950
     51  CA        -2.2710    4.9950    7.1620 C.3     8  SER8        0.1924
     52  C         -3.6870    5.5840    7.2460 C.2     8  SER8        0.2314
     53  O         -4.3870    5.3700    8.2380 O.2     8  SER8       -0.2863
     54  CB        -1.3000    5.9720    6.4920 C.3     8  SER8        0.2116
     55  OG        -1.0900    7.1260    7.2850 O.3     8  SER8       -0.2180
     56  N         -0.9720   -2.7140    2.0620 N.3    15  GLY15      -0.1210
     57  CA         0.2580   -2.7410    1.2990 C.3    15  GLY15       0.1956
     58  C          1.4080   -3.2630    2.1230 C.2    15  GLY15       0.2613
     59  O          1.7000   -2.7320    3.1890 O.2    15  GLY15      -0.2717
     60  N          2.0440   -4.3180    1.6510 N.am   16  SER16      -0.1938
     61  CA         3.1430   -4.9200    2.3730 C.3    16  SER16       0.2055
     62  C          4.1330   -5.5140    1.3750 C.2    16  SER16       0.2642
     63  O          3.7250   -6.1980    0.4340 O.2    16  SER16      -0.2714
     64  CB         2.6080   -5.9990    3.3230 C.3    16  SER16       0.2130
     65  OG         3.5680   -6.3610    4.2980 O.3    16  SER16      -0.2179
     66  N          5.4220   -5.2520    1.5460 N.am   17  GLN17      -0.1976
     67  CA         6.4030   -5.7970    0.6230 C.3    17  GLN17       0.1601
     68  C          6.7720   -7.2180    1.0100 C.2    17  GLN17       0.2287
     69  O          7.6200   -7.4490    1.8770 O.2    17  GLN17      -0.2864
     70  CB         7.6530   -4.9260    0.5200 C.3    17  GLN17       0.0394
     71  CG         8.7050   -5.5010   -0.4160 C.3    17  GLN17       0.0908
     72  CD         9.7930   -4.5160   -0.7930 C.2    17  GLN17       0.2608
     73  OE1       10.3820   -4.6160   -1.8640 O.2    17  GLN17      -0.2717
     74  NE2       10.0540   -3.5470    0.0650 N.am   17  GLN17      -0.0878
     75  N          8.6800   -9.8150    1.0190 N.3    19  GLY19      -0.1210
     76  CA        10.0670  -10.0990    0.7100 C.3    19  GLY19       0.1956
     77  C         10.7270   -8.9450   -0.0180 C.2    19  GLY19       0.2612
     78  O         10.7680   -7.8220    0.4970 O.2    19  GLY19      -0.2717
     79  N         11.2390   -9.2200   -1.2120 N.am   20  SER20      -0.1952
     80  CA        11.8490   -8.1910   -2.0460 C.3    20  SER20       0.1924
     81  C         10.8530   -7.7150   -3.1030 C.2    20  SER20       0.2314
     82  O         11.1070   -6.7580   -3.8380 O.2    20  SER20      -0.2863
     83  CB        13.1210   -8.7310   -2.7110 C.3    20  SER20       0.2116
     84  OG        13.8330   -7.7040   -3.3860 O.3    20  SER20      -0.2180
     85  N          9.8940   -3.5920   -5.7300 N.3    41  ARG41      -0.1245
     86  CA        10.5960   -2.3790   -5.3340 C.3    41  ARG41       0.1563
     87  C         11.9760   -2.3170   -5.9710 C.2    41  ARG41       0.2260
     88  O         12.6000   -1.2570   -6.0160 O.2    41  ARG41      -0.2867
     89  CB        10.7150   -2.2880   -3.8150 C.3    41  ARG41       0.0307
     90  CG        11.1250   -0.9090   -3.3280 C.3    41  ARG41       0.0489
     91  CD        11.2600   -0.8610   -1.8180 C.3    41  ARG41       0.2205
     92  NE        12.5000   -1.4670   -1.3440 N.pl3  41  ARG41      -0.0865
     93  CZ        13.0050   -1.2470   -0.1340 C.cat  41  ARG41       0.5346
     94  NH1       12.3420   -0.4820    0.7250 N.pl3  41  ARG41       0.1354
     95  NH2       14.1600   -1.7930    0.2190 N.pl3  41  ARG41       0.1354
     96  N         12.3590    3.1710   -0.2190 N.3    47  ASP47      -0.1225
     97  CA        11.1690    2.9450    0.5960 C.3    47  ASP47       0.1790
     98  C          9.9790    3.8020    0.1440 C.2    47  ASP47       0.2439
     99  O          8.8850    3.2730   -0.0320 O.2    47  ASP47      -0.2733
    100  CB        11.4680    3.1980    2.0780 C.3    47  ASP47       0.1423
    101  CG        12.5730    2.3130    2.6160 C.2    47  ASP47       0.3668
    102  OD1       12.3100    1.1330    2.9210 O.co2  47  ASP47      -0.2456
    103  OD2       13.7140    2.7980    2.7490 O.co2  47  ASP47      -0.2456
    104  N         10.1430    5.1320   -0.0340 N.am   48  PRO48      -0.2729
    105  CA         9.0600    5.9910   -0.5190 C.3    48  PRO48       0.1401
    106  C          8.4120    5.4800   -1.8050 C.2    48  PRO48       0.2269
    107  O          7.1920    5.4260   -1.8980 O.2    48  PRO48      -0.2865
    108  CB         9.7130    7.3470   -0.7430 C.3    48  PRO48       0.0296
    109  CG        11.1650    7.0720   -0.6930 C.3    48  PRO48       0.0237
    110  CD        11.3400    5.9270    0.2510 C.3    48  PRO48       0.0939
    111  N          8.2390    2.5600   -2.7020 N.3    50  PHE50      -0.1227
    112  CA         7.5330    1.3480   -2.3210 C.3    50  PHE50       0.1736
    113  C          6.0890    1.6740   -1.9510 C.2    50  PHE50       0.2595
    114  O          5.1560    1.0510   -2.4500 O.2    50  PHE50      -0.2718
    115  CB         8.2830    0.6700   -1.1590 C.3    50  PHE50       0.0547
    116  CG         7.4270   -0.1140   -0.2010 C.ar   50  PHE50      -0.0202
    117  CD1        6.8580   -1.3130   -0.5750 C.ar   50  PHE50      -0.0042
    118  CD2        7.1980    0.3550    1.0800 C.ar   50  PHE50      -0.0042
    119  CE1        6.0730   -2.0310    0.3060 C.ar   50  PHE50      -0.0003
    120  CE2        6.4150   -0.3600    1.9640 C.ar   50  PHE50      -0.0003
    121  CZ         5.8510   -1.5530    1.5750 C.ar   50  PHE50      -0.0000
    122  N          5.9070    2.6700   -1.0970 N.am   51  VAL51      -0.1980
    123  CA         4.5710    3.0850   -0.7000 C.3    51  VAL51       0.1595
    124  C          3.8630    3.8700   -1.8110 C.2    51  VAL51       0.2287
    125  O          2.6930    3.6270   -2.1120 O.2    51  VAL51      -0.2864
    126  CB         4.5850    3.8970    0.6200 C.3    51  VAL51       0.0276
    127  CG1        5.2560    3.0980    1.7270 C.3    51  VAL51       0.0022
    128  CG2        5.2660    5.2470    0.4630 C.3    51  VAL51       0.0022
    129  N          2.4090    1.9230   -4.7700 N.3    54  VAL54      -0.1245
    130  CA         1.2460    1.1500   -4.3650 C.3    54  VAL54       0.1561
    131  C         -0.0140    1.9980   -4.4180 C.2    54  VAL54       0.2260
    132  O         -1.0270    1.5870   -4.9900 O.2    54  VAL54      -0.2867
    133  CB         1.4330    0.5730   -2.9440 C.3    54  VAL54       0.0252
    134  CG1        0.1310    0.0110   -2.3960 C.3    54  VAL54       0.0019
    135  CG2        2.5020   -0.4970   -2.9670 C.3    54  VAL54       0.0019
    136  N         -1.4030    8.1270    2.4620 N.3    67  LEU67      -0.1231
    137  CA        -0.4990    7.2280    3.1700 C.3    67  LEU67       0.1693
    138  C          0.5060    8.0030    4.0090 C.2    67  LEU67       0.2592
    139  O          0.9110    7.5520    5.0760 O.2    67  LEU67      -0.2718
    140  CB         0.2070    6.2390    2.2240 C.3    67  LEU67       0.0284
    141  CG         0.6220    6.7540    0.8420 C.3    67  LEU67       0.0019
    142  CD1        1.8350    7.6700    0.9180 C.3    67  LEU67       0.0001
    143  CD2        0.9140    5.5800   -0.0710 C.3    67  LEU67       0.0001
    144  N          0.8810    9.1770    3.5410 N.am   68  THR68      -0.1953
    145  CA         1.8260   10.0090    4.2570 C.3    68  THR68       0.1897
    146  C          1.3000   11.4300    4.3200 C.2    68  THR68       0.2313
    147  O          1.5060   12.2210    3.3940 O.2    68  THR68      -0.2863
    148  CB         3.2240    9.9900    3.5960 C.3    68  THR68       0.1794
    149  OG1        3.1220   10.3470    2.2110 O.3    68  THR68      -0.2208
    150  CG2        3.8700    8.6160    3.7230 C.3    68  THR68       0.0378
@<TRIPOS>BOND
     1    88    87    2
     2    87    86    1
     3    85    86    1
     4    86    89    1
     5   132   131    2
     6   129   130    1
     7   131   130    1
     8   130   133    1
     9    82    81    2
    10    89    90    1
    11    84    83    1
    12    90    91    1
    13    81    80    1
    14   135   133    1
    15   133   134    1
    16    83    80    1
    17   111   112    1
    18   114   113    2
    19   112   113    1
    20   112   115    1
    21   125   124    2
    22    80    79    1
    23   113   122   am
    24   107   106    2
    25    73    72    2
    26    91    92    1
    27   124   123    1
    28   106   105    1
    29    92    93    2
    30    79    77   am
    31   115   116    1
    32   122   123    1
    33    72    71    1
    34    72    74   am
    35   108   109    1
    36   108   105    1
    37   123   126    1
    38   109   110    1
    39   117   116   ar
    40   117   119   ar
    41   105   104    1
    42    71    70    1
    43    96    97    1
    44   116   118   ar
    45    93    95    1
    46    93    94    1
    47   143   141    1
    48   104    98   am
    49   104   110    1
    50    99    98    2
    51    77    78    2
    52    77    76    1
    53    98    97    1
    54   119   121   ar
    55    63    62    2
    56   128   126    1
    57    70    67    1
    58    97   100    1
    59   126   127    1
    60    67    68    1
    61    67    66    1
    62    76    75    1
    63   141   142    1
    64   141   140    1
    65    68    69    2
    66    49    47    1
    67   118   120   ar
    68    57    56    1
    69    57    58    1
    70    62    66   am
    71    62    61    1
    72   121   120   ar
    73    60    58   am
    74    60    61    1
    75   100   101    1
    76    58    59    2
    77   149   148    1
    78   140   137    1
    79    61    64    1
    80   136   137    1
    81    47    46    1
    82   101   103   ar
    83   101   102   ar
    84    48    46    1
    85    46    43    1
    86   137   138    1
    87    64    65    1
    88   147   146    2
    89    15    14    2
    90   144   138   am
    91   144   145    1
    92   148   150    1
    93   148   145    1
    94   138   139    2
    95   145   146    1
    96    14    13    1
    97    14    16   am
    98    45    44    2
    99    13    10    1
   100    43    42    1
   101    43    44    1
   102    42    35   am
   103    12    11    2
   104    44    50   am
   105    29    28    2
   106    10    11    1
   107    10     9    1
   108    11    17   am
   109     9     3   am
   110    20    19    2
   111    35    34    1
   112    35    36    2
   113    50    51    1
   114    54    51    1
   115    54    55    1
   116    34    33    1
   117    34    37    1
   118    19    18    1
   119    26    27    1
   120    28    33   am
   121    28    27    1
   122    17    18    1
   123     1     2    1
   124    51    52    1
   125    52    53    2
   126    18    21    1
   127     3     2    1
   128     3     4    2
   129    37    38    1
   130    38    39    1
   131     2     5    1
   132    27    30    1
   133    39    40    2
   134    39    41   am
   135    30    31    1
   136    30    32    1
   137    21    22    1
   138     5     6    1
   139     6     7    1
   140    22    23    1
   141    23    24   ar
   142    23    25   ar
   143     7     8    1
