@<TRIPOS>MOLECULE
tmp/2mcmA02.pdb
 63 59 0 0 0
SMALL
GASTEIGER

@<TRIPOS>ATOM
      1  N          9.6940   10.0830    6.8040 N.3    36  CYS36      -0.1221
      2  CA         8.9340   10.4770    5.6080 C.3    36  CYS36       0.1808
      3  C          8.6110    9.2970    4.6850 C.2    36  CYS36       0.2601
      4  O          9.1440    8.2130    4.9060 O.2    36  CYS36      -0.2717
      5  CB         9.8270   11.4550    4.7900 C.3    36  CYS36       0.0970
      6  SG        10.4710   12.9120    5.6830 S.3    36  CYS36      -0.0800
      7  N          7.8290    9.5740    3.6650 N.am   37  ALA37      -0.1965
      8  CA         7.4730    8.5440    2.6780 C.3    37  ALA37       0.1728
      9  C          7.0550    9.3330    1.4400 C.2    37  ALA37       0.2616
     10  O          6.7750   10.4910    1.5080 O.2    37  ALA37      -0.2715
     11  CB         6.2670    7.7120    3.1390 C.3    37  ALA37       0.0334
     12  N          7.0340    8.5900    0.3150 N.am   38  VAL38      -0.1977
     13  CA         6.5500    9.2260   -0.9450 C.3    38  VAL38       0.1596
     14  C          5.0340    8.9990   -0.9260 C.2    38  VAL38       0.2287
     15  O          4.5390    7.8400   -0.9410 O.2    38  VAL38      -0.2864
     16  CB         7.2560    8.5860   -2.1790 C.3    38  VAL38       0.0276
     17  CG1        6.5500    9.1270   -3.4360 C.3    38  VAL38       0.0022
     18  CG2        8.7140    8.9060   -2.2360 C.3    38  VAL38       0.0022
     19  N          6.8990   14.1450   -1.3540 N.3    44  ILE44      -0.1245
     20  CA         7.3280   13.5190   -0.0710 C.3    44  ILE44       0.1561
     21  C          6.4940   14.1520    1.0650 C.2    44  ILE44       0.2260
     22  O          6.2830   15.3600    1.0880 O.2    44  ILE44      -0.2867
     23  CB         8.8260   13.7930    0.1500 C.3    44  ILE44       0.0252
     24  CG1        9.6500   13.0750   -0.9900 C.3    44  ILE44       0.0019
     25  CG2        9.3470   13.3630    1.5340 C.3    44  ILE44       0.0019
     26  CD1       11.1610   13.4700   -0.8480 C.3    44  ILE44       0.0001
     27  N          6.8290    2.1040    1.7440 N.3    92  SER92      -0.1202
     28  CA         8.1890    2.2600    2.2660 C.3    92  SER92       0.2020
     29  C          8.3830    3.6430    2.9220 C.2    92  SER92       0.2619
     30  O          8.1130    4.6630    2.2840 O.2    92  SER92      -0.2717
     31  CB         9.3100    2.1540    1.1740 C.3    92  SER92       0.2103
     32  OG         9.2390    0.8250    0.6450 O.3    92  SER92      -0.2182
     33  N          8.8710    3.6540    4.1560 N.am   93  CYS93      -0.1955
     34  CA         9.1500    4.9400    4.8270 C.3    93  CYS93       0.1843
     35  C         10.6260    5.0610    5.1090 C.2    93  CYS93       0.2626
     36  O         11.3450    3.9840    5.0220 O.2    93  CYS93      -0.2714
     37  CB         8.4220    4.9370    6.2150 C.3    93  CYS93       0.0997
     38  SG         6.6370    5.0040    5.9080 S.3    93  CYS93      -0.0797
     39  N         11.1410    6.2160    5.3900 N.am   94  SER94      -0.1950
     40  CA        12.5350    6.3870    5.7090 C.3    94  SER94       0.1924
     41  C         12.7140    7.3250    6.9050 C.2    94  SER94       0.2314
     42  O         11.7490    7.9930    7.3370 O.2    94  SER94      -0.2863
     43  CB        13.2790    7.0900    4.5090 C.3    94  SER94       0.2116
     44  OG        12.7140    8.3550    4.2870 O.3    94  SER94      -0.2180
     45  N         18.9180    9.7770    3.4130 N.3   106  ALA106     -0.1231
     46  CA        17.8700    9.0630    4.1180 C.3   106  ALA106      0.1694
     47  C         18.1380    7.5700    4.0130 C.2   106  ALA106      0.2592
     48  O         18.8640    7.0580    3.1360 O.2   106  ALA106     -0.2718
     49  CB        16.4610    9.3970    3.6120 C.3   106  ALA106      0.0304
     50  N         17.5890    6.8090    4.9660 N.am  107  GLN107     -0.1966
     51  CA        17.7100    5.3590    4.9770 C.3   107  GLN107      0.1733
     52  C         16.3600    4.7020    5.0900 C.2   107  GLN107      0.2616
     53  O         15.5610    5.1280    6.0350 O.2   107  GLN107     -0.2715
     54  CB        18.6430    4.8900    6.0760 C.3   107  GLN107      0.0408
     55  CG        18.7090    3.3660    6.2000 C.3   107  GLN107      0.0908
     56  CD        19.7710    2.9430    7.1720 C.2   107  GLN107      0.2608
     57  OE1       20.6480    3.6250    7.6740 O.2   107  GLN107     -0.2717
     58  NE2       19.8050    1.6380    7.4450 N.am  107  GLN107     -0.0878
     59  N         15.9100    3.7890    4.2950 N.am  108  ALA108     -0.1977
     60  CA        14.6040    3.1100    4.3730 C.3   108  ALA108      0.1597
     61  C         14.6140    2.2780    5.7130 C.2   108  ALA108      0.2287
     62  O         15.6490    1.7700    6.1180 O.2   108  ALA108     -0.2864
     63  CB        14.5720    2.1610    3.1510 C.3   108  ALA108      0.0319
@<TRIPOS>BOND
     1    17    16    1
     2    18    16    1
     3    16    13    1
     4    19    20    1
     5    24    26    1
     6    24    23    1
     7    13    14    1
     8    13    12    1
     9    15    14    2
    10    20    23    1
    11    20    21    1
    12    23    25    1
    13    12     9   am
    14    32    31    1
    15    21    22    2
    16    31    28    1
    17     9    10    2
    18     9     8    1
    19    27    28    1
    20    28    29    1
    21    30    29    2
    22     8    11    1
    23     8     7    1
    24    29    33   am
    25    48    47    2
    26    63    60    1
    27    45    46    1
    28    49    46    1
    29     7     3   am
    30    47    46    1
    31    47    50   am
    32    33    34    1
    33    44    43    1
    34    59    60    1
    35    59    52   am
    36    60    61    1
    37    43    40    1
    38     3     4    2
    39     3     2    1
    40     5     2    1
    41     5     6    1
    42    34    35    1
    43    34    37    1
    44    50    51    1
    45    51    52    1
    46    51    54    1
    47    36    35    2
    48    52    53    2
    49    35    39   am
    50    39    40    1
    51     2     1    1
    52    40    41    1
    53    61    62    2
    54    38    37    1
    55    54    55    1
    56    55    56    1
    57    41    42    2
    58    56    58   am
    59    56    57    2
