@<TRIPOS>MOLECULE
tmp/2mcmA00.pdb
 94 89 0 0 0
SMALL
GASTEIGER

@<TRIPOS>ATOM
      1  N         16.8230   19.3690    8.7920 N.3    32  HIS32      -0.1226
      2  CA        15.5310   18.9110    9.2870 C.3    32  HIS32       0.1752
      3  C         15.5730   17.4000    9.3170 C.2    32  HIS32       0.2596
      4  O         15.7310   16.7500    8.2740 O.2    32  HIS32      -0.2718
      5  CB        14.3710   19.3590    8.3530 C.3    32  HIS32       0.0759
      6  CG        14.4910   20.8260    8.0310 C.ar   32  HIS32       0.0818
      7  ND1       14.4280   21.8000    9.0060 N.ar   32  HIS32      -0.2268
      8  CD2       14.7210   21.4630    6.8640 C.ar   32  HIS32       0.1154
      9  CE1       14.6300   23.0120    8.4130 C.ar   32  HIS32       0.1986
     10  NE2       14.7550   22.8240    7.0930 N.ar   32  HIS32      -0.2212
     11  N         15.4660   16.7930   10.4840 N.am   33  VAL33      -0.1966
     12  CA        15.4970   15.3280   10.7120 C.3    33  VAL33       0.1727
     13  C         14.1230   14.7950   10.7650 C.2    33  VAL33       0.2616
     14  O         13.2170   15.4170   11.4930 O.2    33  VAL33      -0.2715
     15  CB        16.2560   15.0730   12.0400 C.3    33  VAL33       0.0290
     16  CG1       16.3050   13.5550   12.2840 C.3    33  VAL33       0.0023
     17  CG2       17.6640   15.6380   12.0210 C.3    33  VAL33       0.0023
     18  N         13.6940   13.7720   10.0410 N.am   34  GLY34      -0.1955
     19  CA        12.2860   13.3420   10.1460 C.3    34  GLY34       0.1869
     20  C         12.0380   11.9880    9.5120 C.2    34  GLY34       0.2309
     21  O         12.9330   11.4080    8.8560 O.2    34  GLY34      -0.2863
     22  N          9.6940   10.0830    6.8040 N.3    36  CYS36      -0.1235
     23  CA         8.9340   10.4770    5.6080 C.3    36  CYS36       0.1677
     24  C          8.6110    9.2970    4.6850 C.2    36  CYS36       0.2270
     25  O          9.1440    8.2130    4.9060 O.2    36  CYS36      -0.2867
     26  CB         9.8270   11.4550    4.7900 C.3    36  CYS36       0.0956
     27  SG        10.4710   12.9120    5.6830 S.3    36  CYS36      -0.0801
     28  N          6.8990   14.1450   -1.3540 N.3    44  ILE44      -0.1245
     29  CA         7.3280   13.5190   -0.0710 C.3    44  ILE44       0.1561
     30  C          6.4940   14.1520    1.0650 C.2    44  ILE44       0.2260
     31  O          6.2830   15.3600    1.0880 O.2    44  ILE44      -0.2867
     32  CB         8.8260   13.7930    0.1500 C.3    44  ILE44       0.0252
     33  CG1        9.6500   13.0750   -0.9900 C.3    44  ILE44       0.0019
     34  CG2        9.3470   13.3630    1.5340 C.3    44  ILE44       0.0019
     35  CD1       11.1610   13.4700   -0.8480 C.3    44  ILE44       0.0001
     36  N          6.0650   14.0350    5.4500 N.3    46  CYS46      -0.1235
     37  CA         6.8020   13.6260    6.6540 C.3    46  CYS46       0.1677
     38  C          5.9200   13.8710    7.9220 C.2    46  CYS46       0.2270
     39  O          4.9530   14.6280    7.8240 O.2    46  CYS46      -0.2867
     40  CB         8.0620   14.4650    6.8380 C.3    46  CYS46       0.0956
     41  SG         9.1370   14.4290    5.3520 S.3    46  CYS46      -0.0801
     42  N          9.4290   15.5170   13.9160 N.3    51  SER51      -0.1217
     43  CA        10.6350   16.0710   13.2400 C.3    51  SER51       0.1889
     44  C         11.3390   17.0490   14.1220 C.2    51  SER51       0.2288
     45  O         10.7400   17.6210   15.0900 O.2    51  SER51      -0.2866
     46  CB        10.0950   16.6860   11.9500 C.3    51  SER51       0.2089
     47  OG        11.1590   17.2190   11.2150 O.3    51  SER51      -0.2183
     48  N         11.1410    6.2160    5.3900 N.3    94  SER94      -0.1202
     49  CA        12.5350    6.3870    5.7090 C.3    94  SER94       0.2020
     50  C         12.7140    7.3250    6.9050 C.2    94  SER94       0.2619
     51  O         11.7490    7.9930    7.3370 O.2    94  SER94      -0.2717
     52  CB        13.2790    7.0900    4.5090 C.3    94  SER94       0.2103
     53  OG        12.7140    8.3550    4.2870 O.3    94  SER94      -0.2182
     54  N         13.8830    7.3600    7.4420 N.am   95  ALA95      -0.1965
     55  CA        14.3370    8.3270    8.4510 C.3    95  ALA95       0.1728
     56  C         15.5830    8.9770    7.7940 C.2    95  ALA95       0.2617
     57  O         16.3950    8.2880    7.1600 O.2    95  ALA95      -0.2715
     58  CB        14.6960    7.6800    9.7820 C.3    95  ALA95       0.0334
     59  N         15.6940   10.3140    7.9370 N.am   96  GLY96      -0.1940
     60  CA        16.8830   10.9070    7.2990 C.3    96  GLY96       0.2014
     61  C         16.8780   12.3790    7.6250 C.2    96  GLY96       0.2639
     62  O         16.1400   12.7940    8.5590 O.2    96  GLY96      -0.2714
     63  N         17.6810   13.1680    6.9580 N.am   97  LEU97      -0.1963
     64  CA        17.7870   14.5960    7.1870 C.3    97  LEU97       0.1728
     65  C         18.0800   15.3710    5.9080 C.2    97  LEU97       0.2617
     66  O         18.6530   14.7670    5.0040 O.2    97  LEU97      -0.2715
     67  CB        18.8190   14.7850    8.2970 C.3    97  LEU97       0.0311
     68  CG        20.2890   14.6390    7.9970 C.3    97  LEU97       0.0022
     69  CD1       21.1600   15.0160    9.1780 C.3    97  LEU97       0.0001
     70  CD2       20.6610   13.2740    7.4450 C.3    97  LEU97       0.0001
     71  N         17.5910   16.6080    5.8780 N.am   98  GLY98      -0.1940
     72  CA        17.8710   17.3900    4.6510 C.3    98  GLY98       0.2014
     73  C         17.8260   18.8580    5.0260 C.2    98  GLY98       0.2639
     74  O         17.1160   19.2660    5.9600 O.2    98  GLY98      -0.2714
     75  N         18.5430   19.6680    4.2800 N.am   99  SER99      -0.1949
     76  CA        18.5620   21.1210    4.4670 C.3    99  SER99       0.1924
     77  C         17.5100   21.7500    3.5450 C.2    99  SER99       0.2314
     78  O         16.8220   21.0890    2.8060 O.2    99  SER99      -0.2863
     79  CB        19.9590   21.6580    4.1900 C.3    99  SER99       0.2116
     80  OG        20.1140   21.6260    2.7160 O.3    99  SER99      -0.2180
     81  N         21.2830   16.2560    1.7670 N.3   104  GLY104     -0.1210
     82  CA        21.0340   15.3530    2.9220 C.3   104  GLY104      0.1956
     83  C         21.0490   13.9140    2.4640 C.2   104  GLY104      0.2612
     84  O         21.6090   13.5690    1.4070 O.2   104  GLY104     -0.2717
     85  N         20.4480   13.0540    3.2930 N.am  105  ALA105     -0.1965
     86  CA        20.4250   11.6180    2.9370 C.3   105  ALA105      0.1728
     87  C         19.3250   10.9500    3.7580 C.2   105  ALA105      0.2616
     88  O         18.8700   11.5750    4.7750 O.2   105  ALA105     -0.2715
     89  CB        21.7780   11.0530    3.3680 C.3   105  ALA105      0.0334
     90  N         18.9180    9.7770    3.4130 N.am  106  ALA106     -0.1977
     91  CA        17.8700    9.0630    4.1180 C.3   106  ALA106      0.1597
     92  C         18.1380    7.5700    4.0130 C.2   106  ALA106      0.2287
     93  O         18.8640    7.0580    3.1360 O.2   106  ALA106     -0.2864
     94  CB        16.4610    9.3970    3.6120 C.3   106  ALA106      0.0319
@<TRIPOS>BOND
     1    28    29    1
     2    33    35    1
     3    33    32    1
     4    29    32    1
     5    29    30    1
     6    32    34    1
     7    30    31    2
     8    84    83    2
     9    81    82    1
    10    83    82    1
    11    83    85   am
    12    80    79    1
    13    78    77    2
    14    86    85    1
    15    86    89    1
    16    86    87    1
    17    93    92    2
    18    90    87   am
    19    90    91    1
    20    77    76    1
    21    94    91    1
    22    87    88    2
    23    92    91    1
    24    79    76    1
    25    75    76    1
    26    75    73   am
    27    53    52    1
    28    52    49    1
    29    72    73    1
    30    72    71    1
    31    24    25    2
    32    24    23    1
    33    26    23    1
    34    26    27    1
    35    66    65    2
    36    73    74    2
    37    41    27    1
    38    41    40    1
    39    48    49    1
    40    36    37    1
    41    23    22    1
    42    49    50    1
    43    71    65   am
    44    65    64    1
    45    37    40    1
    46    37    38    1
    47     8    10   ar
    48     8     6   ar
    49    50    51    2
    50    50    54   am
    51    63    64    1
    52    63    61   am
    53    10     9   ar
    54    57    56    2
    55    64    67    1
    56    60    61    1
    57    60    59    1
    58    54    55    1
    59    70    68    1
    60    61    62    2
    61    56    59   am
    62    56    55    1
    63    39    38    2
    64    68    67    1
    65    68    69    1
    66     6     5    1
    67     6     7   ar
    68     4     3    2
    69     5     2    1
    70     9     7   ar
    71    55    58    1
    72     1     2    1
    73    21    20    2
    74     2     3    1
    75     3    11   am
    76    20    19    1
    77    18    19    1
    78    18    13   am
    79    11    12    1
    80    12    13    1
    81    12    15    1
    82    13    14    2
    83    47    46    1
    84    46    43    1
    85    17    15    1
    86    15    16    1
    87    43    42    1
    88    43    44    1
    89    44    45    2
