@<TRIPOS>MOLECULE
tmp/2mgyA00.pdb
 231 229 0 0 0
SMALL
GASTEIGER

@<TRIPOS>ATOM
      1  N          7.3490   -4.2130    1.0360 N.3    19  GLY19      -0.1225
      2  CA         6.8510   -3.2460    2.0030 C.3    19  GLY19       0.1811
      3  C          7.9250   -2.9260    3.0300 C.2    19  GLY19       0.2280
      4  O          8.0360   -1.7930    3.4980 O.2    19  GLY19      -0.2866
      5  N          9.4740    0.8590    2.5870 N.3    23  ALA23      -0.1245
      6  CA         9.4170    1.9070    3.5990 C.3    23  ALA23       0.1562
      7  C         10.7670    2.0710    4.2950 C.2    23  ALA23       0.2260
      8  O         11.0300    3.0950    4.9250 O.2    23  ALA23      -0.2867
      9  CB         8.3270    1.5830    4.6270 C.3    23  ALA23       0.0290
     10  N         12.1090    5.5150    4.0150 N.3    26  VAL26      -0.1231
     11  CA        11.6200    6.5960    4.8630 C.3    26  VAL26       0.1692
     12  C         11.9670    6.3350    6.3270 C.2    26  VAL26       0.2591
     13  O         11.8800    7.2320    7.1650 O.2    26  VAL26      -0.2718
     14  CB        10.1030    6.7550    4.7060 C.3    26  VAL26       0.0266
     15  CG1        9.7700    7.0730    3.2460 C.3    26  VAL26       0.0020
     16  CG2        9.3920    5.4600    5.1060 C.3    26  VAL26       0.0020
     17  N         12.3610    5.1010    6.6290 N.am   27  ARG27      -0.1980
     18  CA        12.7210    4.7350    7.9950 C.3    27  ARG27       0.1597
     19  C         13.8490    5.6220    8.5090 C.2    27  ARG27       0.2287
     20  O         13.8130    6.0930    9.6440 O.2    27  ARG27      -0.2864
     21  CB        13.1580    3.2670    8.0460 C.3    27  ARG27       0.0334
     22  CG        13.4320    2.8480    9.5040 C.3    27  ARG27       0.0492
     23  CD        14.9320    2.9470    9.8190 C.3    27  ARG27       0.2205
     24  NE        15.2230    2.2950   11.0900 N.pl3  27  ARG27      -0.0865
     25  CZ        15.4310    0.9840   11.1550 C.cat  27  ARG27       0.5346
     26  NH1       15.3730    0.2610   10.0700 N.pl3  27  ARG27       0.1354
     27  NH2       15.6940    0.4200   12.3020 N.pl3  27  ARG27       0.1354
     28  N         13.7370    9.3080    5.8180 N.3    30  GLY30      -0.1210
     29  CA        12.5320   10.0660    6.1320 C.3    30  GLY30       0.1956
     30  C         12.6750   10.7960    7.4640 C.2    30  GLY30       0.2611
     31  O         12.3940   11.9910    7.5590 O.2    30  GLY30      -0.2717
     32  N         13.1120   10.0720    8.4910 N.am   31  LEU31      -0.1979
     33  CA        13.2870   10.6690    9.8110 C.3    31  LEU31       0.1596
     34  C         14.2330   11.8640    9.7370 C.2    31  LEU31       0.2287
     35  O         14.0680   12.8440   10.4640 O.2    31  LEU31      -0.2864
     36  CB        13.8490    9.6300   10.7860 C.3    31  LEU31       0.0297
     37  CG        12.8640    8.4660   10.9320 C.3    31  LEU31       0.0022
     38  CD1       13.4830    7.3890   11.8240 C.3    31  LEU31       0.0001
     39  CD2       11.5630    8.9680   11.5670 C.3    31  LEU31       0.0001
     40  N          7.3340   17.4390    7.5730 N.3    39  LYS39      -0.1231
     41  CA         6.6630   16.1820    7.2490 C.3    39  LYS39       0.1678
     42  C          5.9380   15.6390    8.4790 C.2    39  LYS39       0.2434
     43  O          6.3440   15.9010    9.6110 O.2    39  LYS39      -0.2733
     44  CB         7.7020   15.1510    6.7660 C.3    39  LYS39       0.0284
     45  CG         7.6590   15.0300    5.2400 C.3    39  LYS39       0.0035
     46  CD         8.6430   13.9470    4.7860 C.3    39  LYS39       0.0206
     47  CE         8.1480   12.5690    5.2380 C.3    39  LYS39       0.1093
     48  NZ         8.7070   11.5250    4.3350 N.3    39  LYS39      -0.1314
     49  N          4.8990   14.8750    8.2780 N.am   40  PRO40      -0.2718
     50  CA         4.1430   14.2780    9.4130 C.3    40  PRO40       0.1535
     51  C          4.9440   13.1530   10.0610 C.2    40  PRO40       0.2599
     52  O          4.3990   12.3050   10.7670 O.2    40  PRO40      -0.2715
     53  CB         2.8750   13.7420    8.7580 C.3    40  PRO40       0.0310
     54  CG         3.2830   13.4000    7.3690 C.3    40  PRO40       0.0237
     55  CD         4.3860   14.3910    6.9830 C.3    40  PRO40       0.0939
     56  N          6.2480   13.1630    9.7990 N.am   41  SER41      -0.1950
     57  CA         7.1540   12.1550   10.3370 C.3    41  SER41       0.1924
     58  C          6.9560   11.9710   11.8390 C.2    41  SER41       0.2314
     59  O          7.6120   11.1320   12.4560 O.2    41  SER41      -0.2863
     60  CB         8.6010   12.5590   10.0600 C.3    41  SER41       0.2116
     61  OG         9.4760   11.6150   10.6610 O.3    41  SER41      -0.2180
     62  N          4.3480   10.8600   13.1370 N.3    43  HIS43      -0.1227
     63  CA         3.5320    9.6660   13.3280 C.3    43  HIS43       0.1737
     64  C          4.4060    8.5320   13.8610 C.2    43  HIS43       0.2438
     65  O          5.5700    8.4180   13.4770 O.2    43  HIS43      -0.2733
     66  CB         2.9040    9.2410   11.9990 C.3    43  HIS43       0.0758
     67  CG         1.7270   10.1250   11.6850 C.ar   43  HIS43       0.0818
     68  ND1        1.8110   11.1680   10.7770 N.ar   43  HIS43      -0.2268
     69  CD2        0.4330   10.1270   12.1410 C.ar   43  HIS43       0.1154
     70  CE1        0.5990   11.7510   10.7160 C.ar   43  HIS43       0.1986
     71  NE2       -0.2780   11.1550   11.5280 N.ar   43  HIS43      -0.2212
     72  N          3.8840    7.7010   14.7290 N.am   44  PRO44      -0.2718
     73  CA         4.6790    6.5720   15.2940 C.3    44  PRO44       0.1520
     74  C          5.6560    6.0040   14.2550 C.2    44  PRO44       0.2440
     75  O          5.2560    5.7170   13.1270 O.2    44  PRO44      -0.2731
     76  CB         3.6300    5.5260   15.6760 C.3    44  PRO44       0.0310
     77  CG         2.3470    6.2740   15.8530 C.3    44  PRO44       0.0237
     78  CD         2.4480    7.5600   15.0260 C.3    44  PRO44       0.0939
     79  N          6.9130    5.8440   14.5930 N.am   45  PRO45      -0.2716
     80  CA         7.8990    5.3070   13.6140 C.3    45  PRO45       0.1536
     81  C          7.4310    3.9880   12.9970 C.2    45  PRO45       0.2598
     82  O          6.6260    3.2650   13.5850 O.2    45  PRO45      -0.2715
     83  CB         9.2000    5.1150   14.4070 C.3    45  PRO45       0.0310
     84  CG         9.0310    5.8420   15.7090 C.3    45  PRO45       0.0237
     85  CD         7.5500    6.2050   15.8710 C.3    45  PRO45       0.0939
     86  N          7.9450    3.6900   11.8090 N.am   46  ARG46      -0.1978
     87  CA         7.5830    2.4620   11.1080 C.3    46  ARG46       0.1597
     88  C          7.5220    1.2840   12.0740 C.2    46  ARG46       0.2287
     89  O          6.9540    0.2430   11.7600 O.2    46  ARG46      -0.2864
     90  CB         8.6020    2.1720    9.9980 C.3    46  ARG46       0.0334
     91  CG         9.9960    1.9340   10.6080 C.3    46  ARG46       0.0492
     92  CD        10.2870    0.4310   10.6860 C.3    46  ARG46       0.2205
     93  NE        11.5600    0.2010   11.3610 N.pl3  46  ARG46      -0.0865
     94  CZ        12.2450   -0.9210   11.1700 C.cat  46  ARG46       0.5346
     95  NH1       11.7840   -1.8400   10.3660 N.pl3  46  ARG46       0.1354
     96  NH2       13.3800   -1.1030   11.7880 N.pl3  46  ARG46       0.1354
     97  N          3.9100    1.6070   13.2370 N.3    49  LEU49      -0.1231
     98  CA         3.0110    1.7450   12.0920 C.3    49  LEU49       0.1693
     99  C          3.1380    0.5630   11.1220 C.2    49  LEU49       0.2591
    100  O          2.1380   -0.0410   10.7420 O.2    49  LEU49      -0.2718
    101  CB         3.2960    3.0680   11.3540 C.3    49  LEU49       0.0284
    102  CG         1.9820    3.8260   11.0740 C.3    49  LEU49       0.0019
    103  CD1        0.9950    2.9110   10.3420 C.3    49  LEU49       0.0001
    104  CD2        1.3630    4.3070   12.3950 C.3    49  LEU49       0.0001
    105  N          4.3670    0.2510   10.7160 N.am   50  ALA50      -0.1980
    106  CA         4.6000   -0.8450    9.7710 C.3    50  ALA50       0.1597
    107  C          3.7080   -2.0550   10.0600 C.2    50  ALA50       0.2287
    108  O          3.3430   -2.7810    9.1360 O.2    50  ALA50      -0.2864
    109  CB         6.0720   -1.2650    9.7730 C.3    50  ALA50       0.0319
    110  N          1.0880   -2.4570    9.7700 N.3    52  ILE52      -0.1231
    111  CA        -0.0540   -2.3690    8.8670 C.3    52  ILE52       0.1692
    112  C         -0.2640   -3.7020    8.1700 C.2    52  ILE52       0.2592
    113  O         -1.3930   -4.1500    7.9780 O.2    52  ILE52      -0.2718
    114  CB         0.1800   -1.2810    7.8060 C.3    52  ILE52       0.0266
    115  CG1        1.2560   -1.7480    6.8110 C.3    52  ILE52       0.0019
    116  CG2        0.6280    0.0180    8.4840 C.3    52  ILE52       0.0020
    117  CD1        1.6480   -0.5950    5.8790 C.3    52  ILE52       0.0001
    118  N          0.8410   -4.3250    7.7840 N.am   53  TRP53      -0.1976
    119  CA         0.7860   -5.6010    7.0930 C.3    53  TRP53       0.1640
    120  C          0.4110   -6.7280    8.0480 C.2    53  TRP53       0.2290
    121  O         -0.0890   -7.7610    7.6200 O.2    53  TRP53      -0.2864
    122  CB         2.1250   -5.8780    6.4120 C.3    53  TRP53       0.0576
    123  CG         2.4100   -4.7530    5.4680 C.ar   53  TRP53       0.0006
    124  CD1        3.4610   -3.9070    5.5620 C.ar   53  TRP53       0.0946
    125  CD2        1.6420   -4.3250    4.3030 C.ar   53  TRP53       0.0152
    126  NE1        3.3870   -2.9860    4.5320 N.ar   53  TRP53      -0.2442
    127  CE2        2.2850   -3.2030    3.7290 C.ar   53  TRP53       0.0810
    128  CE3        0.4620   -4.7960    3.6920 C.ar   53  TRP53       0.0012
    129  CZ2        1.7750   -2.5690    2.5960 C.ar   53  TRP53       0.0191
    130  CZ3       -0.0520   -4.1610    2.5530 C.ar   53  TRP53       0.0001
    131  CH2        0.6020   -3.0490    2.0070 C.ar   53  TRP53       0.0015
    132  N          7.6120   -0.8860   -5.5810 N.3    95  TRP95      -0.1241
    133  CA         7.9130    0.5430   -5.5340 C.3    95  TRP95       0.1605
    134  C          9.2780    0.8390   -4.8940 C.2    95  TRP95       0.2264
    135  O          9.7950    1.9460   -5.0350 O.2    95  TRP95      -0.2867
    136  CB         6.7950    1.3010   -4.8020 C.3    95  TRP95       0.0550
    137  CG         6.8740    1.0960   -3.3190 C.ar   95  TRP95       0.0003
    138  CD1        6.2650    0.0980   -2.6370 C.ar   95  TRP95       0.0946
    139  CD2        7.5630    1.9100   -2.3230 C.ar   95  TRP95       0.0152
    140  NE1        6.5420    0.2420   -1.2880 N.ar   95  TRP95      -0.2442
    141  CE2        7.3390    1.3430   -1.0450 C.ar   95  TRP95       0.0810
    142  CE3        8.3540    3.0700   -2.4040 C.ar   95  TRP95       0.0012
    143  CZ2        7.8800    1.9080    0.1100 C.ar   95  TRP95       0.0191
    144  CZ3        8.9000    3.6410   -1.2420 C.ar   95  TRP95       0.0001
    145  CH2        8.6630    3.0600    0.0120 C.ar   95  TRP95       0.0015
    146  N          8.3100   11.0340   -4.6240 N.3   107  TRP107     -0.1227
    147  CA         8.3130    9.9860   -3.6070 C.3   107  TRP107      0.1737
    148  C          6.9010    9.4380   -3.3700 C.2   107  TRP107      0.2595
    149  O          6.7340    8.3650   -2.7900 O.2   107  TRP107     -0.2718
    150  CB         8.9140   10.5350   -2.2990 C.3   107  TRP107      0.0564
    151  CG         7.8350   11.0460   -1.3890 C.ar  107  TRP107      0.0003
    152  CD1        6.8100   11.8410   -1.7680 C.ar  107  TRP107      0.0946
    153  CD2        7.6630   10.8080    0.0380 C.ar  107  TRP107      0.0152
    154  NE1        6.0170   12.1050   -0.6640 N.ar  107  TRP107     -0.2442
    155  CE2        6.5030   11.4910    0.4720 C.ar  107  TRP107      0.0810
    156  CE3        8.3950   10.0730    0.9880 C.ar  107  TRP107      0.0012
    157  CZ2        6.0830   11.4450    1.8030 C.ar  107  TRP107      0.0191
    158  CZ3        7.9750   10.0260    2.3260 C.ar  107  TRP107      0.0001
    159  CH2        6.8220   10.7100    2.7320 C.ar  107  TRP107      0.0015
    160  N          5.8920   10.1780   -3.8200 N.am  108  ALA108     -0.1980
    161  CA         4.5070    9.7480   -3.6450 C.3   108  ALA108      0.1597
    162  C          4.2470    8.4560   -4.4140 C.2   108  ALA108      0.2287
    163  O          3.2660    7.7540   -4.1610 O.2   108  ALA108     -0.2864
    164  CB         3.5540   10.8390   -4.1380 C.3   108  ALA108      0.0319
    165  N          5.3780    5.7740   -4.0610 N.3   110  ALA110     -0.1231
    166  CA         5.2600    4.6590   -3.1240 C.3   110  ALA110      0.1694
    167  C          3.7950    4.3740   -2.8090 C.2   110  ALA110      0.2592
    168  O          3.2870    3.2920   -3.0990 O.2   110  ALA110     -0.2718
    169  CB         6.0050    4.9780   -1.8220 C.3   110  ALA110      0.0304
    170  N          3.1280    5.3520   -2.2060 N.am  111  ASP111     -0.1974
    171  CA         1.7240    5.1990   -1.8410 C.3   111  ASP111      0.1709
    172  C          0.8750    4.8040   -3.0440 C.2   111  ASP111      0.2293
    173  O          0.1450    3.8210   -2.9970 O.2   111  ASP111     -0.2864
    174  CB         1.1910    6.5060   -1.2500 C.3   111  ASP111      0.1436
    175  CG         0.9170    7.5160   -2.3600 C.2   111  ASP111      0.3671
    176  OD1       -0.1100    7.3900   -3.0080 O.co2 111  ASP111     -0.2456
    177  OD2        1.7350    8.4010   -2.5440 O.co2 111  ASP111     -0.2456
    178  N          1.9000    0.9660   -4.1680 N.3   114  LEU114     -0.1245
    179  CA         1.4370   -0.0980   -3.2790 C.3   114  LEU114      0.1561
    180  C         -0.0810   -0.0540   -3.0990 C.2   114  LEU114      0.2260
    181  O         -0.7260   -1.0940   -2.9390 O.2   114  LEU114     -0.2867
    182  CB         2.1350   -0.0030   -1.9120 C.3   114  LEU114      0.0270
    183  CG         1.9260    1.3950   -1.2880 C.3   114  LEU114      0.0019
    184  CD1        0.8290    1.3340   -0.2200 C.3   114  LEU114      0.0001
    185  CD2        3.2250    1.8690   -0.6250 C.3   114  LEU114      0.0001
    186  N         -5.8680    2.4170    5.5240 N.3   143  TRP143     -0.1241
    187  CA        -4.4240    2.3610    5.3390 C.3   143  TRP143      0.1605
    188  C         -4.0450    3.0730    4.0390 C.2   143  TRP143      0.2264
    189  O         -3.0920    3.8570    3.9990 O.2   143  TRP143     -0.2867
    190  CB        -3.9640    0.8910    5.3090 C.3   143  TRP143      0.0550
    191  CG        -2.6940    0.7570    4.5340 C.ar  143  TRP143      0.0003
    192  CD1       -2.5180   -0.0720    3.4820 C.ar  143  TRP143      0.0946
    193  CD2       -1.4330    1.4550    4.7240 C.ar  143  TRP143      0.0152
    194  NE1       -1.2310    0.0760    3.0090 N.ar  143  TRP143     -0.2442
    195  CE2       -0.5230    1.0040    3.7420 C.ar  143  TRP143      0.0810
    196  CE3       -0.9930    2.4240    5.6420 C.ar  143  TRP143      0.0012
    197  CZ2        0.7740    1.4970    3.6700 C.ar  143  TRP143      0.0191
    198  CZ3        0.3180    2.9240    5.5730 C.ar  143  TRP143      0.0001
    199  CH2        1.2000    2.4600    4.5870 C.ar  143  TRP143      0.0015
    200  N         -4.1040    6.4620    4.5450 N.3   146  PHE146     -0.1227
    201  CA        -3.0350    6.8210    5.4680 C.3   146  PHE146      0.1736
    202  C         -1.8010    7.2910    4.7050 C.2   146  PHE146      0.2595
    203  O         -1.3690    8.4340    4.8530 O.2   146  PHE146     -0.2718
    204  CB        -2.6720    5.6190    6.3400 C.3   146  PHE146      0.0547
    205  CG        -1.8720    6.0830    7.5330 C.ar  146  PHE146     -0.0202
    206  CD1       -0.5400    6.4830    7.3690 C.ar  146  PHE146     -0.0042
    207  CD2       -2.4600    6.1140    8.8030 C.ar  146  PHE146     -0.0042
    208  CE1        0.2030    6.9130    8.4750 C.ar  146  PHE146     -0.0003
    209  CE2       -1.7180    6.5450    9.9080 C.ar  146  PHE146     -0.0003
    210  CZ        -0.3860    6.9450    9.7440 C.ar  146  PHE146     -0.0000
    211  N         -1.2340    6.4050    3.8900 N.am  147  ALA147     -0.1980
    212  CA        -0.0450    6.7580    3.1140 C.3   147  ALA147      0.1597
    213  C         -0.3790    7.8230    2.0740 C.2   147  ALA147      0.2287
    214  O          0.3040    8.8460    1.9720 O.2   147  ALA147     -0.2864
    215  CB         0.5230    5.5190    2.4150 C.3   147  ALA147      0.0319
    216  N         -0.6620   11.0510    3.4690 N.3   150  LEU150     -0.1231
    217  CA         0.6510   11.4650    3.9450 C.3   150  LEU150      0.1693
    218  C          1.3500   12.3090    2.8850 C.2   150  LEU150      0.2592
    219  O          1.6670   13.4760    3.1160 O.2   150  LEU150     -0.2718
    220  CB         1.5170   10.2390    4.2820 C.3   150  LEU150      0.0284
    221  CG         2.4830   10.5860    5.4300 C.3   150  LEU150      0.0019
    222  CD1        1.8520   10.2050    6.7720 C.3   150  LEU150      0.0001
    223  CD2        3.8000    9.8200    5.2590 C.3   150  LEU150      0.0001
    224  N          1.5850   11.7100    1.7210 N.am  151  ASN151     -0.1974
    225  CA         2.2490   12.4190    0.6310 C.3   151  ASN151      0.1688
    226  C          1.5210   13.7220    0.3100 C.2   151  ASN151      0.2292
    227  O          2.1430   14.7740    0.1690 O.2   151  ASN151     -0.2864
    228  CB         2.2970   11.5380   -0.6190 C.3   151  ASN151      0.1181
    229  CG         1.0010   10.7460   -0.7550 C.2   151  ASN151      0.2629
    230  OD1        0.8240    9.7250   -0.0920 O.2   151  ASN151     -0.2716
    231  ND2        0.0780   11.1560   -1.5820 N.am  151  ASN151     -0.0877
@<TRIPOS>BOND
     1   132   133    1
     2   133   134    1
     3   133   136    1
     4   135   134    2
     5   136   137    1
     6   146   147    1
     7   162   163    2
     8   162   161    1
     9   178   179    1
    10   164   161    1
    11   165   166    1
    12   160   161    1
    13   160   148   am
    14   147   148    1
    15   147   150    1
    16   148   149    2
    17   137   138   ar
    18   137   139   ar
    19   179   180    1
    20   179   182    1
    21   166   167    1
    22   166   169    1
    23   180   181    2
    24   168   167    2
    25   172   173    2
    26   172   171    1
    27   176   175   ar
    28   167   170   am
    29   138   140   ar
    30   177   175   ar
    31   142   139   ar
    32   142   144   ar
    33   175   174    1
    34   139   141   ar
    35   150   151    1
    36   170   171    1
    37   182   183    1
    38   171   174    1
    39   152   151   ar
    40   152   154   ar
    41   231   229   am
    42   151   153   ar
    43   140   141   ar
    44   183   185    1
    45   183   184    1
    46   144   145   ar
    47   141   143   ar
    48   229   228    1
    49   229   230    2
    50   154   155   ar
    51   228   225    1
    52   145   143   ar
    53   153   155   ar
    54   153   156   ar
    55   227   226    2
    56   226   225    1
    57   155   157   ar
    58   225   224    1
    59   156   158   ar
    60     1     2    1
    61   224   218   am
    62   157   159   ar
    63   214   213    2
    64     2     3    1
    65   131   130   ar
    66   131   129   ar
    67   213   212    1
    68   158   159   ar
    69   215   212    1
    70   130   128   ar
    71     5     6    1
    72   129   127   ar
    73   218   219    2
    74   218   217    1
    75   194   192   ar
    76   194   195   ar
    77     3     4    2
    78   212   211    1
    79    15    14    1
    80   216   217    1
    81   192   191   ar
    82     6     7    1
    83     6     9    1
    84   197   195   ar
    85   197   199   ar
    86   128   125   ar
    87   127   125   ar
    88   127   126   ar
    89   195   193   ar
    90   211   202   am
    91   217   220    1
    92   189   188    2
    93    10    11    1
    94   188   187    1
    95   220   221    1
    96     7     8    2
    97   125   123   ar
    98    48    47    1
    99   126   124   ar
   100   191   193   ar
   101   191   190    1
   102   200   201    1
   103   199   198   ar
   104   202   203    2
   105   202   201    1
   106    14    11    1
   107    14    16    1
   108   193   196   ar
   109    46    47    1
   110    46    45    1
   111    11    12    1
   112    45    44    1
   113   223   221    1
   114   190   187    1
   115   187   186    1
   116   221   222    1
   117   201   204    1
   118   123   124   ar
   119   123   122    1
   120   198   196   ar
   121    28    29    1
   122   117   115    1
   123    29    30    1
   124    12    17   am
   125    12    13    2
   126   204   205    1
   127   122   119    1
   128    17    18    1
   129    44    41    1
   130   115   114    1
   131    55    54    1
   132    55    49    1
   133   119   118    1
   134   119   120    1
   135    41    40    1
   136    41    42    1
   137   206   205   ar
   138   206   208   ar
   139    54    53    1
   140    30    31    2
   141    30    32   am
   142   205   207   ar
   143   121   120    2
   144   118   112   am
   145   114   116    1
   146   114   111    1
   147   113   112    2
   148    18    21    1
   149    18    19    1
   150    21    22    1
   151   112   111    1
   152    49    42   am
   153    49    50    1
   154   208   210   ar
   155    42    43    2
   156    32    33    1
   157    19    20    2
   158    53    50    1
   159   207   209   ar
   160   111   110    1
   161   108   107    2
   162    50    51    1
   163    22    23    1
   164    34    33    1
   165    34    35    2
   166   210   209   ar
   167   106   109    1
   168   106   107    1
   169   106   105    1
   170    56    51   am
   171    56    57    1
   172    33    36    1
   173    23    24    1
   174    90    91    1
   175    90    87    1
   176    60    57    1
   177    60    61    1
   178    51    52    2
   179    26    25    1
   180    57    58    1
   181   103   102    1
   182    95    94    1
   183    91    92    1
   184    92    93    1
   185    70    68   ar
   186    70    71   ar
   187   105    99   am
   188   100    99    2
   189    68    67   ar
   190    36    37    1
   191    37    39    1
   192    37    38    1
   193   102   101    1
   194   102   104    1
   195    24    25    2
   196    87    86    1
   197    87    88    1
   198    99    98    1
   199    25    27    1
   200    94    93    2
   201    94    96    1
   202   101    98    1
   203    71    69   ar
   204    67    66    1
   205    67    69   ar
   206    89    88    2
   207    86    81   am
   208    58    59    2
   209    66    63    1
   210    98    97    1
   211    81    82    2
   212    81    80    1
   213    75    74    2
   214    62    63    1
   215    63    64    1
   216    65    64    2
   217    80    83    1
   218    80    79    1
   219    64    72   am
   220    74    79   am
   221    74    73    1
   222    83    84    1
   223    79    85    1
   224    72    78    1
   225    72    73    1
   226    78    77    1
   227    73    76    1
   228    76    77    1
   229    84    85    1
