@<TRIPOS>MOLECULE
tmp/2mhoA00.pdb
 140 136 0 0 0
SMALL
GASTEIGER

@<TRIPOS>ATOM
      1  N         -4.7970   10.8560   -8.5090 N.3    14  ARG14      -0.1245
      2  CA        -3.9960   11.6410   -7.4240 C.3    14  ARG14       0.1563
      3  C         -4.8530   12.8300   -6.7500 C.2    14  ARG14       0.2260
      4  O         -5.2210   13.8510   -7.4240 O.2    14  ARG14      -0.2867
      5  CB        -2.5440   12.0980   -8.0550 C.3    14  ARG14       0.0307
      6  CG        -1.2930   12.4120   -7.0940 C.3    14  ARG14       0.0489
      7  CD        -1.2480   13.8610   -6.5070 C.3    14  ARG14       0.2205
      8  NE        -0.0440   14.0830   -5.6050 N.pl3  14  ARG14      -0.0865
      9  CZ         0.2780   15.1930   -4.7770 C.cat  14  ARG14       0.5346
     10  NH1       -0.5110   16.3100   -4.6380 N.pl3  14  ARG14       0.1354
     11  NH2        1.4110   15.1500   -4.0880 N.pl3  14  ARG14       0.1354
     12  N         -4.4550   14.5580   -0.3770 N.3    18  GLY18      -0.1210
     13  CA        -3.2940   13.6060   -0.4050 C.3    18  GLY18       0.1956
     14  C         -3.7300   12.1460   -0.2950 C.2    18  GLY18       0.2611
     15  O         -3.3050   11.4330    0.6410 O.2    18  GLY18      -0.2717
     16  N         -4.6260   11.6980   -1.3400 N.am   19  LEU19      -0.1979
     17  CA        -5.2910   10.3100   -1.5470 C.3    19  LEU19       0.1596
     18  C         -6.4050    9.8140   -0.5470 C.2    19  LEU19       0.2287
     19  O         -7.4530    9.3210   -1.0220 O.2    19  LEU19      -0.2864
     20  CB        -4.2900    9.1110   -2.0920 C.3    19  LEU19       0.0297
     21  CG        -3.9160    8.8910   -3.6130 C.3    19  LEU19       0.0022
     22  CD1       -5.0570    8.6760   -4.5980 C.3    19  LEU19       0.0001
     23  CD2       -2.8120    9.7830   -4.1190 C.3    19  LEU19       0.0001
     24  N         -5.3240    7.9910    2.8830 N.3    21  PHE21      -0.1227
     25  CA        -4.6390    6.8640    3.6640 C.3    21  PHE21       0.1736
     26  C         -3.1140    7.3140    4.0240 C.2    21  PHE21       0.2596
     27  O         -2.6720    8.4310    3.5850 O.2    21  PHE21      -0.2718
     28  CB        -4.7300    5.3920    2.8460 C.3    21  PHE21       0.0547
     29  CG        -3.9530    5.1540    1.4600 C.ar   21  PHE21      -0.0202
     30  CD1       -4.3880    5.7300    0.2380 C.ar   21  PHE21      -0.0042
     31  CD2       -2.8210    4.3320    1.4270 C.ar   21  PHE21      -0.0042
     32  CE1       -3.7100    5.4960   -0.9560 C.ar   21  PHE21      -0.0003
     33  CE2       -2.1440    4.0920    0.2300 C.ar   21  PHE21      -0.0003
     34  CZ        -2.5880    4.6750   -0.9570 C.ar   21  PHE21      -0.0000
     35  N         -2.3370    6.4700    4.9030 N.am   22  SER22      -0.1938
     36  CA        -0.8310    6.5970    5.1390 C.3    22  SER22       0.2055
     37  C         -0.1510    5.1800    5.1960 C.2    22  SER22       0.2643
     38  O         -0.7790    4.1850    5.7160 O.2    22  SER22      -0.2714
     39  CB        -0.4560    7.4800    6.3880 C.3    22  SER22       0.2130
     40  OG        -0.8150    8.8460    6.2230 O.3    22  SER22      -0.2179
     41  N          1.1640    5.0880    4.6410 N.am   23  ILE23      -0.1963
     42  CA         1.9850    3.7780    4.4890 C.3    23  ILE23       0.1727
     43  C          3.3110    3.5960    5.2840 C.2    23  ILE23       0.2616
     44  O          4.2300    4.4510    5.2310 O.2    23  ILE23      -0.2715
     45  CB         1.9890    3.0380    3.0230 C.3    23  ILE23       0.0290
     46  CG1        2.0410    3.9410    1.6570 C.3    23  ILE23       0.0022
     47  CG2        0.7840    2.1460    3.0050 C.3    23  ILE23       0.0023
     48  CD1        3.3410    4.7270    1.2360 C.3    23  ILE23       0.0001
     49  N          3.3440    2.3640    6.0450 N.am   24  ALA24      -0.1977
     50  CA         4.4640    1.8880    6.9440 C.3    24  ALA24       0.1597
     51  C          5.2710    0.7190    6.2380 C.2    24  ALA24       0.2287
     52  O          4.7010   -0.3790    5.9430 O.2    24  ALA24      -0.2864
     53  CB         3.8770    1.4690    8.3630 C.3    24  ALA24       0.0319
     54  N         14.5950    1.6240    7.4640 N.3    29  ASN29      -0.1226
     55  CA        13.5630    2.2020    8.4320 C.3    29  ASN29       0.1770
     56  C         12.4100    1.0980    8.8910 C.2    29  ASN29       0.2439
     57  O         11.5480    0.7230    8.0340 O.2    29  ASN29      -0.2733
     58  CB        12.9190    3.5850    7.8940 C.3    29  ASN29       0.1168
     59  CG        13.8610    4.8280    7.9060 C.2    29  ASN29       0.2627
     60  OD1       14.5830    5.0860    6.9360 O.2    29  ASN29      -0.2716
     61  ND2       13.8210    5.6090    8.9940 N.am   29  ASN29      -0.0877
     62  N         12.4240    0.4790   10.3080 N.am   30  PRO30      -0.2718
     63  CA        11.3360   -0.5310   10.8620 C.3    30  PRO30       0.1535
     64  C          9.8300    0.0440   11.1280 C.2    30  PRO30       0.2599
     65  O          9.5980    1.2880   11.0430 O.2    30  PRO30      -0.2715
     66  CB        11.9720   -0.9880   12.2470 C.3    30  PRO30       0.0310
     67  CG        13.4340   -0.6580   12.1690 C.3    30  PRO30       0.0237
     68  CD        13.5270    0.6230   11.3940 C.3    30  PRO30       0.0939
     69  N          8.8290   -0.9560   11.4110 N.am   31  HIS31      -0.1960
     70  CA         7.4240   -0.7210   11.9450 C.3    31  HIS31       0.1787
     71  C          7.1870   -1.4600   13.3850 C.2    31  HIS31       0.2620
     72  O          6.6480   -0.8050   14.3060 O.2    31  HIS31      -0.2715
     73  CB         6.2480   -1.0490   10.8300 C.3    31  HIS31       0.0785
     74  CG         4.7400   -0.8660   11.3010 C.ar   31  HIS31       0.0821
     75  ND1        4.1930    0.3580   11.6690 N.ar   31  HIS31      -0.2267
     76  CD2        3.7850   -1.7850   11.5800 C.ar   31  HIS31       0.1154
     77  CE1        2.9800    0.1740   12.1550 C.ar   31  HIS31       0.1986
     78  NE2        2.7130   -1.1180   12.1100 N.ar   31  HIS31      -0.2212
     79  N          7.6250   -2.7970   13.5030 N.am   32  ILE32      -0.1963
     80  CA         7.3550   -3.7700   14.6320 C.3    32  ILE32       0.1727
     81  C          8.7330   -4.1990   15.4280 C.2    32  ILE32       0.2616
     82  O          8.6880   -4.4720   16.6610 O.2    32  ILE32      -0.2715
     83  CB         6.3720   -5.0730   14.0490 C.3    32  ILE32       0.0290
     84  CG1        5.6760   -5.9310   15.1450 C.3    32  ILE32       0.0022
     85  CG2        6.9760   -6.0380   12.9430 C.3    32  ILE32       0.0023
     86  CD1        4.3290   -5.3890   15.6800 C.3    32  ILE32       0.0001
     87  N          9.8730   -4.2160   14.6310 N.am   33  GLY33      -0.1955
     88  CA        11.2710   -4.5750   15.0380 C.3    33  GLY33       0.1869
     89  C         12.0500   -5.3000   13.9450 C.2    33  GLY33       0.2309
     90  O         12.2990   -6.5190   14.0520 O.2    33  GLY33      -0.2863
     91  N         -1.8340    0.8490    8.1100 N.3    41  THR41      -0.1203
     92  CA        -2.1200    1.1820    9.6030 C.3    41  THR41       0.1994
     93  C         -2.9710    2.4930    9.8230 C.2    41  THR41       0.2617
     94  O         -3.6960    2.5700   10.8790 O.2    41  THR41      -0.2717
     95  CB        -0.8800    1.0770   10.6750 C.3    41  THR41       0.1784
     96  OG1        0.3070    1.6870   10.1980 O.3    41  THR41      -0.2211
     97  CG2       -0.5770   -0.3640   11.0960 C.3    41  THR41       0.0376
     98  N         -2.9380    3.5330    8.7820 N.am   42  LYS42      -0.1979
     99  CA        -3.7520    4.8000    8.8690 C.3    42  LYS42       0.1596
    100  C         -4.7300    4.9390    7.6180 C.2    42  LYS42       0.2287
    101  O         -4.2940    4.8150    6.4280 O.2    42  LYS42      -0.2864
    102  CB        -2.7760    6.0890    9.0940 C.3    42  LYS42       0.0298
    103  CG        -3.2780    7.3060    9.9640 C.3    42  LYS42       0.0038
    104  CD        -4.1680    8.3500    9.1950 C.3    42  LYS42       0.0206
    105  CE        -4.5220    9.5890   10.0290 C.3    42  LYS42       0.1093
    106  NZ        -5.6020    9.3760   11.0820 N.3    42  LYS42      -0.1314
    107  N         11.2780    3.6780    2.8370 N.3    74  HIS74      -0.1297
    108  CA         9.9620    4.5150    3.1100 C.3    74  HIS74       0.1306
    109  C          9.6760    5.6420    1.9260 C.3    74  HIS74       0.2013
    110  O          8.6700    5.4850    1.0980 O.3    74  HIS74      -0.2188
    111  CB        10.1290    5.1240    4.6200 C.3    74  HIS74       0.0691
    112  CG         8.9230    5.8150    5.3560 C.ar   74  HIS74       0.0814
    113  ND1        8.8520    7.1890    5.5560 N.ar   74  HIS74      -0.2268
    114  CD2        7.8400    5.2960    6.0210 C.ar   74  HIS74       0.1154
    115  CE1        7.7900    7.4830    6.3110 C.ar   74  HIS74       0.1986
    116  NE2        7.1640    6.3530    6.6000 N.ar   74  HIS74      -0.2212
    117  N          6.8150    6.1460   -1.3710 N.3    78  VAL78      -0.1245
    118  CA         6.0460    7.5390   -1.4700 C.3    78  VAL78       0.1561
    119  C          6.2950    8.2550   -2.9350 C.2    78  VAL78       0.2260
    120  O          5.3460    8.7880   -3.5020 O.2    78  VAL78      -0.2867
    121  CB         6.4080    8.5420   -0.1440 C.3    78  VAL78       0.0252
    122  CG1        5.7310    9.9550   -0.1180 C.3    78  VAL78       0.0019
    123  CG2        5.9930    7.8930    1.1640 C.3    78  VAL78       0.0019
    124  N          4.0720    7.2360   -5.6840 N.3    81  LEU81      -0.1231
    125  CA         2.7020    7.8750   -5.4420 C.3    81  LEU81       0.1693
    126  C          2.5840    9.4350   -5.7460 C.2    81  LEU81       0.2591
    127  O          1.5030    9.9030   -6.2150 O.2    81  LEU81      -0.2718
    128  CB         2.0920    7.4370   -3.9990 C.3    81  LEU81       0.0284
    129  CG         2.2010    5.9000   -3.4520 C.3    81  LEU81       0.0019
    130  CD1        1.4600    5.7290   -2.1970 C.3    81  LEU81       0.0001
    131  CD2        1.8010    4.7770   -4.4430 C.3    81  LEU81       0.0001
    132  N          3.7410   10.2100   -5.4800 N.am   82  LYS82      -0.1980
    133  CA         3.9400   11.7190   -5.7160 C.3    82  LYS82       0.1596
    134  C          4.4510   12.0920   -7.1840 C.2    82  LYS82       0.2287
    135  O          3.9900   13.1310   -7.7480 O.2    82  LYS82      -0.2864
    136  CB         4.8760   12.3770   -4.5990 C.3    82  LYS82       0.0298
    137  CG         4.2080   12.6960   -3.2230 C.3    82  LYS82       0.0038
    138  CD         5.1900   13.3910   -2.2700 C.3    82  LYS82       0.0206
    139  CE         4.5240   13.8090   -0.9560 C.3    82  LYS82       0.1093
    140  NZ         5.4830   14.4820   -0.0370 N.3    82  LYS82      -0.1314
@<TRIPOS>BOND
     1     1     2    1
     2     5     2    1
     3     5     6    1
     4   135   134    2
     5     2     3    1
     6     4     3    2
     7   134   133    1
     8     6     7    1
     9     7     8    1
    10   127   126    2
    11   126   132   am
    12   126   125    1
    13   133   132    1
    14   133   136    1
    15   124   125    1
    16     8     9    2
    17   125   128    1
    18     9    10    1
    19     9    11    1
    20   136   137    1
    21    22    21    1
    22   131   129    1
    23    23    21    1
    24   128   129    1
    25    21    20    1
    26   120   119    2
    27   129   130    1
    28   137   138    1
    29   119   118    1
    30   138   139    1
    31    20    17    1
    32    17    16    1
    33    17    18    1
    34   118   117    1
    35   118   121    1
    36    16    14   am
    37    19    18    2
    38    34    32   ar
    39    34    33   ar
    40    32    30   ar
    41   139   140    1
    42    13    12    1
    43    13    14    1
    44    14    15    2
    45   121   122    1
    46   121   123    1
    47    33    31   ar
    48    30    29   ar
    49   110   109    1
    50    48    46    1
    51    31    29   ar
    52    29    28    1
    53    46    45    1
    54   109   108    1
    55   107   108    1
    56    28    25    1
    57    24    25    1
    58    47    45    1
    59    45    42    1
    60   108   111    1
    61    27    26    2
    62    25    26    1
    63    26    35   am
    64    42    41    1
    65    42    43    1
    66   111   112    1
    67    41    37   am
    68    35    36    1
    69    36    37    1
    70    36    39    1
    71    37    38    2
    72    44    43    2
    73    43    49   am
    74   112   113   ar
    75   112   114   ar
    76   113   115   ar
    77    52    51    2
    78   114   116   ar
    79    49    50    1
    80    40    39    1
    81    51    50    1
    82   115   116   ar
    83   101   100    2
    84    60    59    2
    85    50    53    1
    86    54    55    1
    87   100    99    1
    88    58    59    1
    89    58    55    1
    90    59    61   am
    91    57    56    2
    92    91    92    1
    93    55    56    1
    94    98    99    1
    95    98    93   am
    96    99   102    1
    97    56    62   am
    98   102   103    1
    99   104   103    1
   100   104   105    1
   101    92    93    1
   102    92    95    1
   103    93    94    2
   104   105   106    1
   105    96    95    1
   106    62    63    1
   107    62    68    1
   108    95    97    1
   109    73    74    1
   110    73    70    1
   111    63    64    1
   112    63    66    1
   113    65    64    2
   114    64    69   am
   115    74    76   ar
   116    74    75   ar
   117    68    67    1
   118    69    70    1
   119    76    78   ar
   120    75    77   ar
   121    70    71    1
   122    78    77   ar
   123    67    66    1
   124    85    83    1
   125    71    79   am
   126    71    72    2
   127    79    80    1
   128    89    90    2
   129    89    88    1
   130    83    80    1
   131    83    84    1
   132    87    88    1
   133    87    81   am
   134    80    81    1
   135    84    86    1
   136    81    82    2
