@<TRIPOS>MOLECULE
tmp/2mipC00.pdb
 124 117 0 0 0
SMALL
GASTEIGER

@<TRIPOS>ATOM
      1  N         21.0680    6.4490   43.2210 N.3     8  ARG8       -0.1245
      2  CA        20.2650    7.6570   43.1170 C.3     8  ARG8        0.1563
      3  C         20.8520    8.4980   41.9750 C.2     8  ARG8        0.2260
      4  O         22.0480    8.7860   41.9580 O.2     8  ARG8       -0.2867
      5  CB        20.3970    8.5300   44.3750 C.3     8  ARG8        0.0307
      6  CG        19.7700    7.9390   45.6200 C.3     8  ARG8        0.0489
      7  CD        19.4960    9.0010   46.6660 C.3     8  ARG8        0.2205
      8  NE        18.9030    8.4210   47.8590 N.pl3   8  ARG8       -0.0865
      9  CZ        19.0840    8.9010   49.0790 C.cat   8  ARG8        0.5346
     10  NH1       19.8240    9.9860   49.3600 N.pl3   8  ARG8        0.1354
     11  NH2       18.4660    8.2990   50.0640 N.pl3   8  ARG8        0.1354
     12  N         19.1970   15.6970   43.1650 N.3    23  LEU23      -0.1245
     13  CA        18.5970   14.4180   42.7720 C.3    23  LEU23       0.1561
     14  C         17.6140   14.6250   41.5980 C.2    23  LEU23       0.2260
     15  O         16.7200   15.4900   41.6570 O.2    23  LEU23      -0.2867
     16  CB        17.9480   13.6900   43.9670 C.3    23  LEU23       0.0270
     17  CG        17.1760   12.4310   43.6230 C.3    23  LEU23       0.0019
     18  CD1       18.1280   11.3340   43.3530 C.3    23  LEU23       0.0001
     19  CD2       16.3270   12.0050   44.8070 C.3    23  LEU23       0.0001
     20  N         14.6660   13.8840   39.3730 N.3    25  ASP25      -0.1239
     21  CA        13.4700   13.2070   39.7840 C.3    25  ASP25       0.1674
     22  C         12.2860   13.2370   38.8180 C.2    25  ASP25       0.2266
     23  O         11.5980   14.2560   38.6390 O.2    25  ASP25      -0.2867
     24  CB        13.1610   13.8980   41.0900 C.3    25  ASP25       0.1410
     25  CG        12.2030   13.2320   41.9610 C.2    25  ASP25       0.3668
     26  OD1       11.4190   12.4150   41.3690 O.co2  25  ASP25      -0.2456
     27  OD2       12.1790   13.3910   43.1220 O.co2  25  ASP25      -0.2456
     28  N          9.4970   12.1440   39.3500 N.3    27  GLY27      -0.1210
     29  CA         8.3110   12.0560   40.1590 C.3    27  GLY27       0.1956
     30  C          8.0000   13.3370   40.9030 C.2    27  GLY27       0.2612
     31  O          7.1810   13.3480   41.8050 O.2    27  GLY27      -0.2717
     32  N          8.6970   14.3870   40.5000 N.am   28  ALA28      -0.1965
     33  CA         8.5610   15.6940   41.0350 C.3    28  ALA28       0.1728
     34  C          8.2210   16.6040   39.9030 C.2    28  ALA28       0.2616
     35  O          8.7360   16.4380   38.8270 O.2    28  ALA28      -0.2715
     36  CB         9.8030   16.0860   41.7780 C.3    28  ALA28       0.0334
     37  N          7.2720   17.4820   40.1600 N.am   29  ASP29      -0.1957
     38  CA         6.7190   18.4470   39.2000 C.3    29  ASP29       0.1840
     39  C          7.5530   19.7310   39.0910 C.2    29  ASP29       0.2622
     40  O          7.5880   20.3710   38.0090 O.2    29  ASP29      -0.2715
     41  CB         5.2950   18.8820   39.6530 C.3    29  ASP29       0.1450
     42  CG         4.1890   17.8990   39.3930 C.2    29  ASP29       0.3671
     43  OD1        4.3140   16.9200   38.6810 O.co2  29  ASP29      -0.2456
     44  OD2        3.0590   18.3180   39.8890 O.co2  29  ASP29      -0.2456
     45  N          8.1600   20.0890   40.2360 N.am   30  ASP30      -0.1971
     46  CA         8.9560   21.2710   40.4760 C.3    30  ASP30       0.1709
     47  C         10.3120   20.8950   40.9780 C.2    30  ASP30       0.2293
     48  O         10.5380   19.7230   41.2620 O.2    30  ASP30      -0.2864
     49  CB         8.3150   22.1720   41.5360 C.3    30  ASP30       0.1436
     50  CG         6.8620   22.3350   41.2790 C.2    30  ASP30       0.3671
     51  OD1        6.4420   23.0500   40.4290 O.co2  30  ASP30      -0.2456
     52  OD2        6.0910   21.6680   42.0970 O.co2  30  ASP30      -0.2456
     53  N         13.1010   21.4930   43.9870 N.3    32  ILE32      -0.1245
     54  CA        13.3230   22.0690   45.2830 C.3    32  ILE32       0.1561
     55  C         14.7090   21.8340   45.8870 C.2    32  ILE32       0.2260
     56  O         15.2450   20.6910   45.9030 O.2    32  ILE32      -0.2867
     57  CB        12.1290   22.2280   46.2430 C.3    32  ILE32       0.0252
     58  CG1       12.6710   22.2470   47.6540 C.3    32  ILE32       0.0019
     59  CG2       10.9470   21.2240   46.0490 C.3    32  ILE32       0.0019
     60  CD1       11.6250   21.9970   48.7240 C.3    32  ILE32       0.0001
     61  N          3.4050   23.1260   48.4970 N.3    47  VAL47      -0.1231
     62  CA         3.7430   22.0000   47.6260 C.3    47  VAL47       0.1692
     63  C          3.6450   20.7030   48.4000 C.2    47  VAL47       0.2593
     64  O          3.8630   20.7170   49.5920 O.2    47  VAL47      -0.2718
     65  CB         5.1050   22.3380   47.0510 C.3    47  VAL47       0.0266
     66  CG1        6.2050   21.3640   47.4030 C.3    47  VAL47       0.0020
     67  CG2        4.9730   22.5490   45.5930 C.3    47  VAL47       0.0020
     68  N          3.2110   19.6070   47.7900 N.am   48  GLY48      -0.1942
     69  CA         3.0500   18.3680   48.5650 C.3    48  GLY48       0.2014
     70  C          3.9340   17.1730   48.1970 C.2    48  GLY48       0.2639
     71  O          4.3490   16.9710   47.0630 O.2    48  GLY48      -0.2714
     72  N          4.1200   16.2800   49.1470 N.am   49  GLY49      -0.1939
     73  CA         4.8850   15.0860   48.8390 C.3    49  GLY49       0.2014
     74  C          4.2680   13.8880   49.5250 C.2    49  GLY49       0.2638
     75  O          3.0580   13.8540   49.8170 O.2    49  GLY49      -0.2714
     76  N          5.1050   12.9260   49.8550 N.am   50  ILE50      -0.1977
     77  CA         4.6520   11.7390   50.5080 C.3    50  ILE50       0.1596
     78  C          4.0630   11.9840   51.8800 C.2    50  ILE50       0.2287
     79  O          3.0220   11.4090   52.2680 O.2    50  ILE50      -0.2864
     80  CB         5.7710   10.6880   50.4920 C.3    50  ILE50       0.0276
     81  CG1        5.2330    9.3480   49.9950 C.3    50  ILE50       0.0022
     82  CG2        6.6070   10.5420   51.7740 C.3    50  ILE50       0.0022
     83  CD1        4.6730    9.4420   48.5900 C.3    50  ILE50       0.0001
     84  N          2.3290   18.5210   53.1800 N.3    53  PHE53      -0.1241
     85  CA         2.7010   19.7640   52.5490 C.3    53  PHE53       0.1605
     86  C          3.8640   20.4970   53.1530 C.2    53  PHE53       0.2264
     87  O          3.9910   20.5270   54.3960 O.2    53  PHE53      -0.2867
     88  CB         1.4900   20.7220   52.5110 C.3    53  PHE53       0.0534
     89  CG         0.3960   20.1190   51.6910 C.ar   53  PHE53      -0.0203
     90  CD1        0.4350   20.2520   50.3090 C.ar   53  PHE53      -0.0042
     91  CD2       -0.6210   19.3670   52.2730 C.ar   53  PHE53      -0.0042
     92  CE1       -0.5530   19.6720   49.5230 C.ar   53  PHE53      -0.0003
     93  CE2       -1.6070   18.7730   51.4880 C.ar   53  PHE53      -0.0003
     94  CZ        -1.5810   18.9390   50.1080 C.ar   53  PHE53      -0.0000
     95  N         13.9640   20.4040   52.4840 N.3    80  THR80      -0.1204
     96  CA        14.0080   19.1540   51.7590 C.3    80  THR80       0.1982
     97  C         15.3540   18.5290   52.1320 C.2    80  THR80       0.2497
     98  O         16.3840   19.2130   52.2190 O.2    80  THR80      -0.2729
     99  CB        13.8390   19.4190   50.2370 C.3    80  THR80       0.1783
    100  OG1       13.7300   18.2250   49.5070 O.3    80  THR80      -0.2211
    101  CG2       15.0010   20.2150   49.6580 C.3    80  THR80       0.0376
    102  N         15.3900   17.2560   52.4410 N.am   81  PRO81      -0.2492
    103  CA        16.6420   16.6920   52.8780 C.3    81  PRO81       0.1619
    104  C         17.6230   16.4410   51.7420 C.2    81  PRO81       0.2605
    105  O         18.8500   16.3930   51.9090 O.2    81  PRO81      -0.2715
    106  CB        16.3000   15.3830   53.6020 C.3    81  PRO81       0.0570
    107  CG        14.7960   15.2030   53.5070 C.2    81  PRO81      -0.0077
    108  CD        14.2300   16.4770   52.9090 C.2    81  PRO81       0.0634
    109  N         17.0310   16.2360   50.5780 N.am   82  ILE82      -0.1978
    110  CA        17.7340   16.0220   49.3270 C.3    82  ILE82       0.1596
    111  C         17.1730   16.9940   48.3310 C.2    82  ILE82       0.2287
    112  O         15.9980   17.2220   48.3140 O.2    82  ILE82      -0.2864
    113  CB        17.5390   14.5830   48.9140 C.3    82  ILE82       0.0276
    114  CG1       18.3550   13.7750   49.9210 C.3    82  ILE82       0.0022
    115  CG2       18.0270   14.3490   47.5050 C.3    82  ILE82       0.0022
    116  CD1       17.5630   12.6050   50.4570 C.3    82  ILE82       0.0001
    117  N         15.9500   18.3960   44.8550 N.3    84  ILE84      -0.1245
    118  CA        15.4430   17.6400   43.7120 C.3    84  ILE84       0.1561
    119  C         15.2770   18.4780   42.4630 C.2    84  ILE84       0.2260
    120  O         14.8670   19.6020   42.5310 O.2    84  ILE84      -0.2867
    121  CB        14.1850   16.8720   44.1100 C.3    84  ILE84       0.0252
    122  CG1       13.0620   17.8380   44.1890 C.3    84  ILE84       0.0019
    123  CG2       14.3400   16.2670   45.5030 C.3    84  ILE84       0.0019
    124  CD1       11.9860   17.5040   43.1690 C.3    84  ILE84       0.0001
@<TRIPOS>BOND
     1    40    39    2
     2    23    22    2
     3    43    42   ar
     4    22    21    1
     5    35    34    2
     6    39    38    1
     7    39    45   am
     8    38    41    1
     9    38    37    1
    10    28    29    1
    11    20    21    1
    12    42    41    1
    13    42    44   ar
    14    21    24    1
    15    34    37   am
    16    34    33    1
    17    29    30    1
    18    45    46    1
    19    51    50   ar
    20    46    47    1
    21    46    49    1
    22    32    30   am
    23    32    33    1
    24    30    31    2
    25    47    48    2
    26    33    36    1
    27    24    25    1
    28    50    49    1
    29    50    52   ar
    30    26    25   ar
    31    14    15    2
    32    14    13    1
    33     4     3    2
    34    25    27   ar
    35     3     2    1
    36   119   120    2
    37   119   118    1
    38    13    12    1
    39    13    16    1
    40     2     1    1
    41     2     5    1
    42   124   122    1
    43    18    17    1
    44    17    16    1
    45    17    19    1
    46   118   121    1
    47   118   117    1
    48    53    54    1
    49   121   122    1
    50   121   123    1
    51     5     6    1
    52    54    55    1
    53    54    57    1
    54    67    65    1
    55     6     7    1
    56    55    56    2
    57    59    57    1
    58    57    58    1
    59     7     8    1
    60    65    66    1
    61    65    62    1
    62    71    70    2
    63   115   113    1
    64    62    63    1
    65    62    61    1
    66    58    60    1
    67    68    63   am
    68    68    69    1
    69     8     9    2
    70    70    69    1
    71    70    72   am
    72   112   111    2
    73   111   110    1
    74    63    64    2
    75    83    81    1
    76    73    72    1
    77    73    74    1
    78   113   110    1
    79   113   114    1
    80     9    10    1
    81     9    11    1
    82   110   109    1
    83   100    99    1
    84    92    94   ar
    85    92    90   ar
    86    74    75    2
    87    74    76   am
    88   101    99    1
    89    76    77    1
    90   114   116    1
    91    81    80    1
    92    94    93   ar
    93    99    96    1
    94    90    89   ar
    95    80    77    1
    96    80    82    1
    97    77    78    1
    98   109   104   am
    99    93    91   ar
   100    89    91   ar
   101    89    88    1
   102   104   105    2
   103   104   103    1
   104    96    97    1
   105    96    95    1
   106    78    79    2
   107    97    98    2
   108    97   102   am
   109   102   103    1
   110   102   108    1
   111    88    85    1
   112    85    86    1
   113    85    84    1
   114   103   106    1
   115   108   107    2
   116    86    87    2
   117   107   106    1
