@<TRIPOS>MOLECULE
tmp/2mjiA00.pdb
 187 174 0 0 0
SMALL
GASTEIGER

@<TRIPOS>ATOM
      1  N         -5.5910    6.4900   -7.1870 N.3    14  TYR14      -0.1241
      2  CA        -5.0190    5.1590   -7.1340 C.3    14  TYR14       0.1605
      3  C         -4.5660    4.7460   -8.5290 C.2    14  TYR14       0.2264
      4  O         -3.4600    4.2380   -8.7110 O.2    14  TYR14      -0.2867
      5  CB        -6.0290    4.1600   -6.5740 C.3    14  TYR14       0.0534
      6  CG        -5.4140    2.8290   -6.2120 C.ar   14  TYR14      -0.0201
      7  CD1       -4.9580    1.9640   -7.1950 C.ar   14  TYR14      -0.0009
      8  CD2       -5.2810    2.4440   -4.8860 C.ar   14  TYR14      -0.0009
      9  CE1       -4.3870    0.7490   -6.8680 C.ar   14  TYR14       0.0417
     10  CE2       -4.7090    1.2320   -4.5480 C.ar   14  TYR14       0.0417
     11  CZ        -4.2630    0.3880   -5.5440 C.ar   14  TYR14       0.1957
     12  OH        -3.6920   -0.8190   -5.2130 O.3    14  TYR14      -0.2866
     13  N         -1.1380    5.7170   -9.7620 N.3    17  PHE17      -0.1227
     14  CA         0.0070    4.8620   -9.4940 C.3    17  PHE17       0.1736
     15  C          0.1010    3.7450  -10.5260 C.2    17  PHE17       0.2595
     16  O          1.1920    3.2870  -10.8620 O.2    17  PHE17      -0.2718
     17  CB        -0.0760    4.3120   -8.0650 C.3    17  PHE17       0.0547
     18  CG         0.1850    5.3670   -7.0340 C.ar   17  PHE17      -0.0202
     19  CD1       -0.2550    6.6620   -7.2560 C.ar   17  PHE17      -0.0042
     20  CD2        0.8830    5.0870   -5.8640 C.ar   17  PHE17      -0.0042
     21  CE1       -0.0100    7.6620   -6.3520 C.ar   17  PHE17      -0.0003
     22  CE2        1.1280    6.0900   -4.9450 C.ar   17  PHE17      -0.0003
     23  CZ         0.6830    7.3800   -5.1910 C.ar   17  PHE17      -0.0000
     24  N         -1.0460    3.3230  -11.0420 N.am   18  MET18      -0.1979
     25  CA        -1.0900    2.2800  -12.0480 C.3    18  MET18       0.1605
     26  C         -0.4160    2.7320  -13.3410 C.2    18  MET18       0.2287
     27  O          0.1500    1.9170  -14.0700 O.2    18  MET18      -0.2864
     28  CB        -2.5400    1.8980  -12.3330 C.3    18  MET18       0.0413
     29  CG        -3.1220    0.9540  -11.3030 C.3    18  MET18       0.0598
     30  SD        -2.9720    1.5680   -9.6160 S.3    18  MET18      -0.1393
     31  CE        -1.8120    0.3890   -8.9280 C.3    18  MET18       0.0692
     32  N          3.5870    4.3120  -12.3450 N.3    21  MET21      -0.1245
     33  CA         4.3680    3.1690  -11.8870 C.3    21  MET21       0.1570
     34  C          4.2170    1.9870  -12.8410 C.2    21  MET21       0.2261
     35  O          5.0190    1.0530  -12.8170 O.2    21  MET21      -0.2867
     36  CB         3.9420    2.7490  -10.4780 C.3    21  MET21       0.0387
     37  CG         3.6600    3.9180   -9.5470 C.3    21  MET21       0.0595
     38  SD         3.3340    3.3980   -7.8490 S.3    21  MET21      -0.1393
     39  CE         2.4760    1.8470   -8.1120 C.3    21  MET21       0.0692
     40  N          1.4430   -0.1590  -13.0860 N.3    23  VAL23      -0.1245
     41  CA         0.8840   -1.2920  -12.3540 C.3    23  VAL23       0.1561
     42  C         -0.1880   -1.9930  -13.1790 C.2    23  VAL23       0.2260
     43  O         -1.1380   -1.3630  -13.6430 O.2    23  VAL23      -0.2867
     44  CB         0.2810   -0.8530  -11.0020 C.3    23  VAL23       0.0252
     45  CG1        0.0240   -2.0570  -10.1080 C.3    23  VAL23       0.0019
     46  CG2        1.1940    0.1490  -10.3070 C.3    23  VAL23       0.0019
     47  N         -4.1570   -7.3270  -11.7230 N.3    27  LYS27      -0.1245
     48  CA        -3.8700   -7.3860  -10.2960 C.3    27  LYS27       0.1561
     49  C         -4.5010   -6.1930   -9.5890 C.2    27  LYS27       0.2260
     50  O         -4.9220   -6.2850   -8.4360 O.2    27  LYS27      -0.2867
     51  CB        -2.3590   -7.4020  -10.0540 C.3    27  LYS27       0.0271
     52  CG        -1.9780   -7.5640   -8.5910 C.3    27  LYS27       0.0035
     53  CD        -1.2310   -6.3480   -8.0680 C.3    27  LYS27       0.0206
     54  CE        -2.1670   -5.3780   -7.3650 C.3    27  LYS27       0.1093
     55  NZ        -1.5020   -4.6940   -6.2220 N.3    27  LYS27      -0.1314
     56  N         -7.1790   -4.8940   -6.2890 N.3    31  ALA31      -0.1245
     57  CA        -6.2230   -4.1440   -5.4850 C.3    31  ALA31       0.1562
     58  C         -6.4410   -2.6380   -5.6130 C.2    31  ALA31       0.2260
     59  O         -5.9040   -1.8610   -4.8240 O.2    31  ALA31      -0.2867
     60  CB        -4.8020   -4.5070   -5.8870 C.3    31  ALA31       0.0290
     61  N         -2.9320   -9.9010    2.2250 N.3    51  GLU51      -0.1245
     62  CA        -3.9360   -9.3220    1.3430 C.3    51  GLU51       0.1567
     63  C         -4.9360  -10.3710    0.8760 C.2    51  GLU51       0.2260
     64  O         -4.5600  -11.4690    0.4660 O.2    51  GLU51      -0.2867
     65  CB        -3.2720   -8.6610    0.1350 C.3    51  GLU51       0.0388
     66  CG        -2.0270   -7.8620    0.4840 C.3    51  GLU51       0.1160
     67  CD        -1.8390   -6.6530   -0.4120 C.2    51  GLU51       0.3649
     68  OE1       -2.8540   -6.1170   -0.9050 O.co2  51  GLU51      -0.2457
     69  OE2       -0.6780   -6.2430   -0.6210 O.co2  51  GLU51      -0.2457
     70  N         -2.3880  -11.4890   -2.3770 N.3    58  ILE58      -0.1245
     71  CA        -1.1890  -10.6730   -2.2210 C.3    58  ILE58       0.1561
     72  C         -0.7280  -10.6570   -0.7680 C.2    58  ILE58       0.2260
     73  O         -1.5200  -10.8790    0.1480 O.2    58  ILE58      -0.2867
     74  CB        -1.4170   -9.2220   -2.7040 C.3    58  ILE58       0.0252
     75  CG1       -2.3710   -9.1970   -3.9060 C.3    58  ILE58       0.0019
     76  CG2       -0.0910   -8.5710   -3.0640 C.3    58  ILE58       0.0019
     77  CD1       -2.8370   -7.8060   -4.2860 C.3    58  ILE58       0.0001
     78  N         11.3290   -1.9970    1.0110 N.3    68  PHE68      -0.1241
     79  CA        10.1180   -2.6470    0.5270 C.3    68  PHE68       0.1605
     80  C         10.4210   -3.4160   -0.7510 C.2    68  PHE68       0.2264
     81  O         11.3530   -3.0780   -1.4810 O.2    68  PHE68      -0.2867
     82  CB         9.0240   -1.6030    0.2610 C.3    68  PHE68       0.0534
     83  CG         7.9430   -1.5340    1.3130 C.ar   68  PHE68      -0.0203
     84  CD1        8.1070   -2.1350    2.5530 C.ar   68  PHE68      -0.0042
     85  CD2        6.7530   -0.8660    1.0540 C.ar   68  PHE68      -0.0042
     86  CE1        7.1100   -2.0730    3.5040 C.ar   68  PHE68      -0.0003
     87  CE2        5.7540   -0.8020    2.0030 C.ar   68  PHE68      -0.0003
     88  CZ         5.9320   -1.4080    3.2290 C.ar   68  PHE68      -0.0000
     89  N          8.4310   -5.2810   -4.1790 N.3    70  TYR70      -0.1241
     90  CA         7.2270   -5.5380   -4.9590 C.3    70  TYR70       0.1605
     91  C          7.5710   -5.7030   -6.4360 C.2    70  TYR70       0.2264
     92  O          6.8430   -5.2370   -7.3130 O.2    70  TYR70      -0.2867
     93  CB         6.2170   -4.4030   -4.7690 C.3    70  TYR70       0.0534
     94  CG         4.9410   -4.8400   -4.0840 C.ar   70  TYR70      -0.0201
     95  CD1        4.3290   -6.0420   -4.4150 C.ar   70  TYR70      -0.0009
     96  CD2        4.3510   -4.0510   -3.1050 C.ar   70  TYR70      -0.0009
     97  CE1        3.1640   -6.4450   -3.7900 C.ar   70  TYR70       0.0417
     98  CE2        3.1870   -4.4480   -2.4750 C.ar   70  TYR70       0.0417
     99  CZ         2.5980   -5.6450   -2.8210 C.ar   70  TYR70       0.1957
    100  OH         1.4390   -6.0430   -2.1960 O.3    70  TYR70      -0.2866
    101  N          7.5130   -7.1360   -9.7860 N.3    72  LEU72      -0.1245
    102  CA         6.6110   -7.9940  -10.5440 C.3    72  LEU72       0.1561
    103  C          6.6280   -7.6280  -12.0240 C.2    72  LEU72       0.2260
    104  O          5.9440   -6.6980  -12.4510 O.2    72  LEU72      -0.2867
    105  CB         5.1870   -7.8840   -9.9960 C.3    72  LEU72       0.0270
    106  CG         4.3640   -9.1710  -10.0680 C.3    72  LEU72       0.0019
    107  CD1        4.7210  -10.0980   -8.9170 C.3    72  LEU72       0.0001
    108  CD2        2.8760   -8.8530  -10.0570 C.3    72  LEU72       0.0001
    109  N          3.4310   -6.9770  -13.6160 N.3    75  GLY75      -0.1210
    110  CA         2.7610   -5.7170  -13.3590 C.3    75  GLY75       0.1956
    111  C          3.7320   -4.5650  -13.2060 C.2    75  GLY75       0.2612
    112  O          3.8990   -3.7600  -14.1220 O.2    75  GLY75      -0.2717
    113  N          4.3660   -4.4790  -12.0420 N.am   76  THR76      -0.1952
    114  CA         5.3150   -3.4110  -11.7730 C.3    76  THR76       0.1897
    115  C          6.2770   -3.7940  -10.6510 C.2    76  THR76       0.2313
    116  O          6.0400   -4.7520   -9.9150 O.2    76  THR76      -0.2863
    117  CB         4.5540   -2.1400  -11.4030 C.3    76  THR76       0.1794
    118  OG1        5.4200   -1.0190  -11.3810 O.3    76  THR76      -0.2208
    119  CG2        3.8680   -2.2250  -10.0560 C.3    76  THR76       0.0378
    120  N          8.3940   -2.1170   -7.3660 N.3    78  LEU78      -0.1245
    121  CA         8.5940   -0.9760   -6.4810 C.3    78  LEU78       0.1561
    122  C          9.3330   -1.3860   -5.2070 C.2    78  LEU78       0.2260
    123  O          8.9040   -2.2890   -4.4890 O.2    78  LEU78      -0.2867
    124  CB         7.2420   -0.3380   -6.1380 C.3    78  LEU78       0.0270
    125  CG         6.8150    0.8060   -7.0680 C.3    78  LEU78       0.0019
    126  CD1        5.4860    0.4970   -7.7370 C.3    78  LEU78       0.0001
    127  CD2        6.7210    2.1210   -6.3220 C.3    78  LEU78       0.0001
    128  N          8.5280    3.3930   -1.6740 N.3    93  PHE93      -0.1241
    129  CA         8.8650    2.4950   -2.7750 C.3    93  PHE93       0.1605
    130  C          9.7430    3.2210   -3.7900 C.2    93  PHE93       0.2264
    131  O          9.9190    4.4370   -3.7200 O.2    93  PHE93      -0.2867
    132  CB         7.6300    1.9700   -3.5140 C.3    93  PHE93       0.0534
    133  CG         6.8310    0.9160   -2.7920 C.ar   93  PHE93      -0.0203
    134  CD1        7.2930   -0.3900   -2.7300 C.ar   93  PHE93      -0.0042
    135  CD2        5.6030    1.2140   -2.2130 C.ar   93  PHE93      -0.0042
    136  CE1        6.5530   -1.3760   -2.1080 C.ar   93  PHE93      -0.0003
    137  CE2        4.8640    0.2300   -1.5830 C.ar   93  PHE93      -0.0003
    138  CZ         5.3380   -1.0660   -1.5320 C.ar   93  PHE93      -0.0000
    139  N          8.9970    7.0540   -4.1800 N.3   102  LEU102     -0.1245
    140  CA         7.6040    6.8850   -3.8040 C.3   102  LEU102      0.1561
    141  C          7.4350    6.9840   -2.2890 C.2   102  LEU102      0.2260
    142  O          8.1270    6.3030   -1.5320 O.2   102  LEU102     -0.2867
    143  CB         7.1100    5.5400   -4.3200 C.3   102  LEU102      0.0270
    144  CG         5.5900    5.3560   -4.3200 C.3   102  LEU102      0.0019
    145  CD1        5.1280    4.6480   -5.5820 C.3   102  LEU102      0.0001
    146  CD2        5.1500    4.5890   -3.0850 C.3   102  LEU102      0.0001
    147  N          4.6240    7.2770    1.1690 N.3   104  THR104     -0.1218
    148  CA         3.2850    6.9700    1.6560 C.3   104  THR104      0.1862
    149  C          3.1770    7.2360    3.1530 C.2   104  THR104      0.2287
    150  O          3.9960    6.7610    3.9400 O.2   104  THR104     -0.2866
    151  CB         2.9120    5.5190    1.3510 C.3   104  THR104      0.1770
    152  OG1        1.6550    5.1970    1.9240 O.3   104  THR104     -0.2211
    153  CG2        3.9250    4.5190    1.8630 C.3   104  THR104      0.0375
    154  N          0.4470    6.9980    6.3030 N.3   106  ARG106     -0.1245
    155  CA        -0.8420    6.5470    6.8110 C.3   106  ARG106      0.1563
    156  C         -1.0800    7.0680    8.2240 C.2   106  ARG106      0.2260
    157  O         -0.3490    6.7260    9.1540 O.2   106  ARG106     -0.2867
    158  CB        -0.9130    5.0190    6.7990 C.3   106  ARG106      0.0307
    159  CG        -0.5740    4.4050    5.4500 C.3   106  ARG106      0.0489
    160  CD        -0.9270    2.9270    5.4060 C.3   106  ARG106      0.2205
    161  NE         0.0240    2.1610    4.6050 N.pl3 106  ARG106     -0.0865
    162  CZ         0.0480    0.8310    4.5530 C.cat 106  ARG106      0.5346
    163  NH1       -0.8250    0.1170    5.2530 N.pl3 106  ARG106      0.1354
    164  NH2        0.9470    0.2130    3.7990 N.pl3 106  ARG106      0.1354
    165  N         -0.2780    8.7080   -0.6900 N.3   117  TYR117     -0.1241
    166  CA         0.9280    8.2200   -1.3360 C.3   117  TYR117      0.1605
    167  C          1.3660    9.1720   -2.4400 C.2   117  TYR117      0.2264
    168  O          0.5340    9.8200   -3.0730 O.2   117  TYR117     -0.2867
    169  CB         0.6920    6.8280   -1.9360 C.3   117  TYR117      0.0534
    170  CG        -0.0270    5.8510   -1.0250 C.ar  117  TYR117     -0.0201
    171  CD1       -1.3400    6.0710   -0.6170 C.ar  117  TYR117     -0.0009
    172  CD2        0.6070    4.6960   -0.5860 C.ar  117  TYR117     -0.0009
    173  CE1       -1.9920    5.1720    0.2020 C.ar  117  TYR117      0.0417
    174  CE2       -0.0410    3.7910    0.2330 C.ar  117  TYR117      0.0417
    175  CZ        -1.3400    4.0340    0.6240 C.ar  117  TYR117      0.1957
    176  OH        -1.9890    3.1350    1.4390 O.3   117  TYR117     -0.2866
    177  N         -6.0430    7.5660   -0.0670 N.3   126  ARG126     -0.1245
    178  CA        -6.8990    6.4090    0.1310 C.3   126  ARG126      0.1563
    179  C         -7.5120    6.3650    1.5260 C.2   126  ARG126      0.2260
    180  O         -6.8110    6.1760    2.5200 O.2   126  ARG126     -0.2867
    181  CB        -6.0890    5.1360   -0.1240 C.3   126  ARG126      0.0307
    182  CG        -6.9050    3.8560   -0.0310 C.3   126  ARG126      0.0489
    183  CD        -6.6020    2.9130   -1.1880 C.3   126  ARG126      0.2205
    184  NE        -5.1850    2.9160   -1.5470 N.pl3 126  ARG126     -0.0865
    185  CZ        -4.2540    2.2120   -0.9060 C.cat 126  ARG126      0.5346
    186  NH1       -4.5820    1.4510    0.1310 N.pl3 126  ARG126      0.1354
    187  NH2       -2.9900    2.2710   -1.3010 N.pl3 126  ARG126      0.1354
@<TRIPOS>BOND
     1   112   111    2
     2    27    26    2
     3    43    42    2
     4   109   110    1
     5   110   111    1
     6    26    25    1
     7   111   113   am
     8    42    41    1
     9    40    41    1
    10    34    35    2
    11    34    33    1
    12   104   103    2
    13    41    44    1
    14    32    33    1
    15    28    25    1
    16    28    29    1
    17    25    24    1
    18   113   114    1
    19   103   102    1
    20    33    36    1
    21   114   117    1
    22   114   115    1
    23    47    48    1
    24   117   118    1
    25   117   119    1
    26    29    30    1
    27    24    15   am
    28    44    46    1
    29    44    45    1
    30    16    15    2
    31   115   116    2
    32   102   105    1
    33   102   101    1
    34    15    14    1
    35    36    37    1
    36    48    51    1
    37    48    49    1
    38   106   108    1
    39   106   105    1
    40   106   107    1
    41    51    52    1
    42    13    14    1
    43    30    31    1
    44    49    50    2
    45    37    38    1
    46    14    17    1
    47     4     3    2
    48    52    53    1
    49     3     2    1
    50    39    38    1
    51    53    54    1
    52    17    18    1
    53   126   125    1
    54   120   121    1
    55    54    55    1
    56    92    91    2
    57    19    18   ar
    58    19    21   ar
    59     7     9   ar
    60     7     6   ar
    61     1     2    1
    62     2     5    1
    63   125   127    1
    64   125   124    1
    65    18    20   ar
    66     9    11   ar
    67     5     6    1
    68   121   124    1
    69   121   122    1
    70    91    90    1
    71    21    23   ar
    72    56    57    1
    73     6     8   ar
    74    60    57    1
    75    20    22   ar
    76    58    57    1
    77    58    59    2
    78   145   144    1
    79    11    12    1
    80    11    10   ar
    81   122   123    2
    82    23    22   ar
    83    90    93    1
    84    90    89    1
    85     8    10   ar
    86    93    94    1
    87    95    94   ar
    88    95    97   ar
    89   144   143    1
    90   144   146    1
    91   143   140    1
    92    77    75    1
    93   139   140    1
    94    94    96   ar
    95    75    74    1
    96   140   141    1
    97   130   131    2
    98   130   129    1
    99    97    99   ar
   100   132   133    1
   101   132   129    1
   102    96    98   ar
   103   168   167    2
   104    76    74    1
   105    99    98   ar
   106    99   100    1
   107   133   134   ar
   108   133   135   ar
   109   129   128    1
   110   134   136   ar
   111    74    71    1
   112   167   166    1
   113    70    71    1
   114   141   142    2
   115    71    72    1
   116   135   137   ar
   117   136   138   ar
   118   169   166    1
   119   169   170    1
   120   137   138   ar
   121   184   183    1
   122   184   185    2
   123    81    80    2
   124   166   165    1
   125   187   185    1
   126   183   182    1
   127   170   171   ar
   128   170   172   ar
   129   185   186    1
   130    68    67   ar
   131    72    73    2
   132    80    79    1
   133    69    67   ar
   134   171   173   ar
   135   172   174   ar
   136    67    66    1
   137   181   182    1
   138   181   178    1
   139   177   178    1
   140   178   179    1
   141    65    66    1
   142    65    62    1
   143   173   175   ar
   144   174   175   ar
   145    82    79    1
   146    82    83    1
   147    64    63    2
   148    79    78    1
   149   175   176    1
   150    63    62    1
   151    85    83   ar
   152    85    87   ar
   153   147   148    1
   154    83    84   ar
   155    62    61    1
   156   151   148    1
   157   151   153    1
   158   151   152    1
   159   179   180    2
   160   148   149    1
   161    87    88   ar
   162    84    86   ar
   163   149   150    2
   164    88    86   ar
   165   164   162    1
   166   162   161    2
   167   162   163    1
   168   161   160    1
   169   160   159    1
   170   159   158    1
   171   154   155    1
   172   158   155    1
   173   155   156    1
   174   156   157    2
