@<TRIPOS>MOLECULE
tmp/2mjpA00.pdb
 138 135 0 0 0
SMALL
GASTEIGER

@<TRIPOS>ATOM
      1  N         30.7230    4.3010   -3.8870 N.3     8  ASN8       -0.1240
      2  CA        30.4520    4.8630   -2.5750 C.3     8  ASN8        0.1653
      3  C         29.8370    3.8390   -1.6270 C.2     8  ASN8        0.2266
      4  O         28.6440    3.5570   -1.7040 O.2     8  ASN8       -0.2867
      5  CB        29.5160    6.0580   -2.7140 C.3     8  ASN8        0.1155
      6  CG        29.4650    6.8850   -1.4650 C.2     8  ASN8        0.2627
      7  OD1       29.9790    6.4780   -0.4260 O.2     8  ASN8       -0.2716
      8  ND2       28.8540    8.0510   -1.5510 N.am    8  ASN8       -0.0877
      9  N         28.8790    4.1140    1.3260 N.3    10  ASN10      -0.1225
     10  CA        27.7750    4.6880    2.0950 C.3    10  ASN10       0.1785
     11  C         26.3920    4.4750    1.4850 C.2    10  ASN10       0.2597
     12  O         25.3950    4.4220    2.2010 O.2    10  ASN10      -0.2718
     13  CB        28.0040    6.1680    2.3040 C.3    10  ASN10       0.1169
     14  CG        29.1390    6.4410    3.2320 C.2    10  ASN10       0.2627
     15  OD1       29.7430    7.5000    3.1880 O.2    10  ASN10      -0.2716
     16  ND2       29.4470    5.4810    4.0800 N.am   10  ASN10      -0.0877
     17  N         26.3300    4.3510    0.1670 N.am   11  LYS11      -0.1980
     18  CA        25.0530    4.1310   -0.5160 C.3    11  LYS11       0.1596
     19  C         24.4740    2.7720   -0.2040 C.2    11  LYS11       0.2287
     20  O         23.2590    2.5940   -0.2780 O.2    11  LYS11      -0.2864
     21  CB        25.2310    4.2450   -2.0240 C.3    11  LYS11       0.0298
     22  CG        25.8110    5.5490   -2.4080 C.3    11  LYS11       0.0038
     23  CD        25.4080    5.9950   -3.7840 C.3    11  LYS11       0.0206
     24  CE        25.9020    7.4160   -3.9820 C.3    11  LYS11       0.1093
     25  NZ        25.9670    7.6980   -5.4080 N.3    11  LYS11      -0.1314
     26  N         23.3300    2.9680    3.4260 N.3    14  GLU14      -0.1245
     27  CA        22.0670    3.6870    3.4270 C.3    14  GLU14       0.1567
     28  C         20.9440    2.8050    2.8710 C.2    14  GLU14       0.2260
     29  O         19.8480    2.7800    3.4160 O.2    14  GLU14      -0.2867
     30  CB        22.1480    4.9830    2.6060 C.3    14  GLU14       0.0388
     31  CG        20.7650    5.5390    2.3100 C.3    14  GLU14       0.1160
     32  CD        20.7830    6.7010    1.3550 C.2    14  GLU14       0.3649
     33  OE1       20.5220    7.8380    1.8100 O.co2  14  GLU14      -0.2457
     34  OE2       21.0460    6.4890    0.1530 O.co2  14  GLU14      -0.2457
     35  N         21.2840   10.6160   -9.3280 N.3    65  SER65      -0.1202
     36  CA        20.5430   11.6420   -8.6250 C.3    65  SER65       0.2023
     37  C         20.8220   13.0290   -9.1820 C.2    65  SER65       0.2658
     38  O         21.8260   13.2500   -9.8320 O.2    65  SER65      -0.2713
     39  CB        20.9310   11.5940   -7.1370 C.3    65  SER65       0.2104
     40  OG        20.1950   10.5790   -6.4550 O.3    65  SER65      -0.2182
     41  N         19.9220   13.9630   -8.9350 N.am   66  GLY66      -0.1718
     42  CA        20.1600   15.3050   -9.4150 C.2    66  GLY66       0.1480
     43  C         19.3200   16.3850   -8.7550 C.2    66  GLY66       0.2820
     44  O         18.3010   16.1030   -8.1150 O.2    66  GLY66      -0.2669
     45  N         19.7550   17.6290   -8.9940 N.am   67  PHE67      -0.1939
     46  CA        19.1810   18.8730   -8.4600 C.3    67  PHE67       0.1642
     47  C         18.6030   19.6330   -9.6340 C.2    67  PHE67       0.2290
     48  O         19.2750   19.8430  -10.6350 O.2    67  PHE67      -0.2864
     49  CB        20.3220   19.6460   -7.7580 C.3    67  PHE67       0.0560
     50  CG        19.9160   20.9890   -7.1680 C.ar   67  PHE67      -0.0200
     51  CD1       20.6130   22.1450   -7.5070 C.ar   67  PHE67      -0.0042
     52  CD2       18.8520   21.0890   -6.2910 C.ar   67  PHE67      -0.0042
     53  CE1       20.2550   23.3710   -6.9850 C.ar   67  PHE67      -0.0003
     54  CE2       18.4870   22.3290   -5.7610 C.ar   67  PHE67      -0.0003
     55  CZ        19.1940   23.4680   -6.1120 C.ar   67  PHE67      -0.0000
     56  N         24.4720   17.5770  -12.4600 N.3    80  SER80      -0.1202
     57  CA        24.5390   18.3890  -11.2630 C.3    80  SER80       0.2020
     58  C         25.9200   18.3740  -10.6170 C.2    80  SER80       0.2618
     59  O         26.3940   19.4120  -10.1880 O.2    80  SER80      -0.2717
     60  CB        23.3860   18.0080  -10.3190 C.3    80  SER80       0.2103
     61  OG        23.9090   17.1750   -9.3130 O.3    80  SER80      -0.2182
     62  N         26.6190   17.2420  -10.6340 N.am   81  LYS81      -0.1979
     63  CA        27.9660   17.1600  -10.0620 C.3    81  LYS81       0.1596
     64  C         29.0000   18.0120  -10.8010 C.2    81  LYS81       0.2287
     65  O         29.7730   18.7220  -10.1720 O.2    81  LYS81      -0.2864
     66  CB        28.4690   15.7120  -10.0400 C.3    81  LYS81       0.0298
     67  CG        27.5960   14.7770   -9.2630 C.3    81  LYS81       0.0038
     68  CD        27.8730   14.9640   -7.7940 C.3    81  LYS81       0.0206
     69  CE        26.7240   14.4860   -6.8930 C.3    81  LYS81       0.1093
     70  NZ        26.6140   15.3870   -5.6690 N.3    81  LYS81      -0.1314
     71  N         15.1100   17.8300   -5.7500 N.3   106  PHE106     -0.1241
     72  CA        16.1500   16.8090   -5.8920 C.3   106  PHE106      0.1605
     73  C         15.3740   15.5840   -6.3380 C.2   106  PHE106      0.2264
     74  O         14.1960   15.4700   -6.0230 O.2   106  PHE106     -0.2867
     75  CB        16.8210   16.5060   -4.5460 C.3   106  PHE106      0.0534
     76  CG        17.9930   17.4030   -4.2250 C.ar  106  PHE106     -0.0203
     77  CD1       17.8710   18.4080   -3.2650 C.ar  106  PHE106     -0.0042
     78  CD2       19.2260   17.2100   -4.8410 C.ar  106  PHE106     -0.0042
     79  CE1       18.9490   19.2020   -2.9080 C.ar  106  PHE106     -0.0003
     80  CE2       20.3360   18.0140   -4.4930 C.ar  106  PHE106     -0.0003
     81  CZ        20.1840   19.0120   -3.5150 C.ar  106  PHE106     -0.0000
     82  N         26.0880   18.0600    1.6150 N.3   140  PHE140     -0.1227
     83  CA        27.0050   18.0840    0.4820 C.3   140  PHE140      0.1736
     84  C         26.4940   19.1370   -0.5000 C.2   140  PHE140      0.2595
     85  O         25.3030   19.4380   -0.5800 O.2   140  PHE140     -0.2718
     86  CB        26.9700   16.7670   -0.3100 C.3   140  PHE140      0.0547
     87  CG        27.6600   15.5830    0.3420 C.ar  140  PHE140     -0.0202
     88  CD1       28.4500   15.7180    1.4750 C.ar  140  PHE140     -0.0042
     89  CD2       27.4930   14.3010   -0.2110 C.ar  140  PHE140     -0.0042
     90  CE1       29.0660   14.6020    2.0600 C.ar  140  PHE140     -0.0003
     91  CE2       28.1020   13.1940    0.3610 C.ar  140  PHE140     -0.0003
     92  CZ        28.8930   13.3500    1.5040 C.ar  140  PHE140     -0.0000
     93  N         27.4200   19.6770   -1.2680 N.am  141  ALA141     -0.1966
     94  CA        27.1080   20.5910   -2.3640 C.3   141  ALA141      0.1728
     95  C         25.9060   21.5260   -2.2530 C.2   141  ALA141      0.2616
     96  O         25.9420   22.5150   -1.5250 O.2   141  ALA141     -0.2715
     97  CB        26.9870   19.7420   -3.6420 C.3   141  ALA141      0.0334
     98  N         24.8500   21.2120   -3.0170 N.am  142  TYR142     -0.1960
     99  CA        23.6350   22.0380   -3.0860 C.3   142  TYR142      0.1771
    100  C         22.7670   22.0950   -1.8490 C.2   142  TYR142      0.2619
    101  O         21.7890   22.8600   -1.7990 O.2   142  TYR142     -0.2715
    102  CB        22.7630   21.6060   -4.2640 C.3   142  TYR142      0.0574
    103  CG        23.4770   21.6330   -5.5990 C.ar  142  TYR142     -0.0198
    104  CD1       23.8610   20.4570   -6.2210 C.ar  142  TYR142     -0.0009
    105  CD2       23.7330   22.8310   -6.2570 C.ar  142  TYR142     -0.0009
    106  CE1       24.4700   20.4760   -7.4690 C.ar  142  TYR142      0.0417
    107  CE2       24.3480   22.8570   -7.5100 C.ar  142  TYR142      0.0417
    108  CZ        24.7030   21.6620   -8.1010 C.ar  142  TYR142      0.1957
    109  OH        25.2780   21.6320   -9.3530 O.3   142  TYR142     -0.2866
    110  N         23.1170   21.2840   -0.8600 N.am  143  ASP143     -0.1971
    111  CA        22.3480   21.2050    0.3680 C.3   143  ASP143      0.1709
    112  C         22.3420   22.5180    1.1410 C.2   143  ASP143      0.2293
    113  O         21.3900   22.8020    1.8470 O.2   143  ASP143     -0.2864
    114  CB        22.8740   20.0490    1.2240 C.3   143  ASP143      0.1436
    115  CG        22.7650   18.7040    0.5110 C.2   143  ASP143      0.3671
    116  OD1       21.9110   18.5450   -0.3790 O.co2 143  ASP143     -0.2456
    117  OD2       23.5380   17.7940    0.8410 O.co2 143  ASP143     -0.2456
    118  N         14.6700   12.5270   -1.3280 N.3   168  HIS168     -0.1226
    119  CA        14.3770   11.8660   -2.5950 C.3   168  HIS168      0.1752
    120  C         14.9260   10.4500   -2.5950 C.2   168  HIS168      0.2595
    121  O         14.3310    9.5270   -3.1450 O.2   168  HIS168     -0.2718
    122  CB        15.0090   12.6530   -3.7530 C.3   168  HIS168      0.0759
    123  CG        16.4130   13.1180   -3.4900 C.ar  168  HIS168      0.0818
    124  ND1       16.7530   13.8810   -2.3950 N.ar  168  HIS168     -0.2268
    125  CD2       17.5490   12.9770   -4.2110 C.ar  168  HIS168      0.1154
    126  CE1       18.0400   14.1950   -2.4570 C.ar  168  HIS168      0.1986
    127  NE2       18.5420   13.6550   -3.5530 N.ar  168  HIS168     -0.2212
    128  N         16.0840   10.3030   -1.9560 N.am  169  ARG169     -0.1980
    129  CA        16.7850    9.0400   -1.8800 C.3   169  ARG169      0.1597
    130  C         15.9990    8.1010   -1.0420 C.2   169  ARG169      0.2287
    131  O         15.8370    6.9230   -1.3860 O.2   169  ARG169     -0.2864
    132  CB        18.1780    9.2670   -1.3060 C.3   169  ARG169      0.0334
    133  CG        18.9610   10.2990   -2.0960 C.3   169  ARG169      0.0492
    134  CD        20.3980   10.3370   -1.6580 C.3   169  ARG169      0.2205
    135  NE        20.9460    8.9960   -1.7360 N.pl3 169  ARG169     -0.0865
    136  CZ        21.5620    8.5260   -2.8060 C.cat 169  ARG169      0.5346
    137  NH1       21.7010    9.3070   -3.8640 N.pl3 169  ARG169      0.1354
    138  NH2       21.9880    7.2640   -2.8320 N.pl3 169  ARG169      0.1354
@<TRIPOS>BOND
     1    56    57    1
     2    57    58    1
     3    57    60    1
     4    64    65    2
     5    64    63    1
     6    48    47    2
     7    62    58   am
     8    62    63    1
     9    58    59    2
    10    60    61    1
    11    63    66    1
    12    66    67    1
    13    38    37    2
    14    47    46    1
    15    42    41    2
    16    42    43    1
    17   109   108    1
    18    35    36    1
    19    67    68    1
    20    37    41    1
    21    37    36    1
    22    45    43   am
    23    45    46    1
    24    43    44    2
    25    36    39    1
    26    46    49    1
    27   108   107   ar
    28   108   106   ar
    29    68    69    1
    30    49    50    1
    31   107   105   ar
    32    51    50   ar
    33    51    53   ar
    34   106   104   ar
    35    50    52   ar
    36    39    40    1
    37    53    55   ar
    38    69    70    1
    39    73    74    2
    40    73    72    1
    41    52    54   ar
    42   105   103   ar
    43   104   103   ar
    44    55    54   ar
    45    72    71    1
    46    72    75    1
    47   103   102    1
    48    25    24    1
    49    78    80   ar
    50    78    76   ar
    51    75    76    1
    52    80    81   ar
    53   102    99    1
    54    76    77   ar
    55   125   127   ar
    56   125   123   ar
    57    24    23    1
    58     1     2    1
    59   137   136    1
    60    23    22    1
    61   122   123    1
    62   122   119    1
    63    97    94    1
    64   127   126   ar
    65    81    79   ar
    66   123   124   ar
    67    77    79   ar
    68   121   120    2
    69    99    98    1
    70    99   100    1
    71    98    95   am
    72   138   136    1
    73   136   135    2
    74     5     2    1
    75     5     6    1
    76   119   120    1
    77   119   118    1
    78   120   128   am
    79     2     3    1
    80   126   124   ar
    81    22    21    1
    82    94    95    1
    83    94    93    1
    84    95    96    2
    85   133   134    1
    86   133   132    1
    87    21    18    1
    88   128   129    1
    89   129   132    1
    90   129   130    1
    91   100   101    2
    92   100   110   am
    93   135   134    1
    94     4     3    2
    95     8     6   am
    96     6     7    2
    97   131   130    2
    98    93    84   am
    99   110   111    1
   100    85    84    2
   101    18    19    1
   102    18    17    1
   103    84    83    1
   104   116   115   ar
   105    86    87    1
   106    86    83    1
   107    20    19    2
   108    89    87   ar
   109    89    91   ar
   110    34    32   ar
   111    17    11   am
   112    87    88   ar
   113    91    92   ar
   114   111   112    1
   115   111   114    1
   116    83    82    1
   117   115   117   ar
   118   115   114    1
   119   112   113    2
   120     9    10    1
   121    32    33   ar
   122    32    31    1
   123    88    90   ar
   124    11    10    1
   125    11    12    2
   126    92    90   ar
   127    10    13    1
   128    13    14    1
   129    31    30    1
   130    30    27    1
   131    28    29    2
   132    28    27    1
   133    15    14    2
   134    14    16   am
   135    26    27    1
