@<TRIPOS>MOLECULE
tmp/2mlmA00.pdb
 113 105 0 0 0
SMALL
GASTEIGER

@<TRIPOS>ATOM
      1  N         21.1210    8.7860    6.7660 N.3    58  SER58      -0.1217
      2  CA        21.1080    9.9830    7.5900 C.3    58  SER58       0.1889
      3  C         19.7170   10.6100    7.5970 C.2    58  SER58       0.2288
      4  O         19.1490   10.8890    6.5410 O.2    58  SER58      -0.2866
      5  CB        22.1310   10.9940    7.0790 C.3    58  SER58       0.2089
      6  OG        23.3900   10.3810    6.8510 O.3    58  SER58      -0.2183
      7  N         14.0400   17.4250   14.9020 N.3    62  HIS62      -0.1241
      8  CA        14.1420   18.4870   15.8990 C.3    62  HIS62       0.1621
      9  C         13.6060   18.0180   17.2470 C.2    62  HIS62       0.2264
     10  O         12.8230   17.0700   17.3130 O.2    62  HIS62      -0.2867
     11  CB        13.4010   19.7470   15.4340 C.3    62  HIS62       0.0745
     12  CG        14.1260   20.5070   14.3620 C.ar   62  HIS62       0.0817
     13  ND1       13.6530   20.6450   13.0740 N.ar   62  HIS62      -0.2268
     14  CD2       15.3040   21.1770   14.3990 C.ar   62  HIS62       0.1154
     15  CE1       14.5080   21.3640   12.3680 C.ar   62  HIS62       0.1986
     16  NE2       15.5190   21.7000   13.1480 N.ar   62  HIS62      -0.2212
     17  N         30.5030   21.2630   12.9630 N.3   108  VAL108     -0.1245
     18  CA        29.8450   20.1750   12.2620 C.3   108  VAL108      0.1561
     19  C         30.8250   19.0260   12.0770 C.2   108  VAL108      0.2260
     20  O         30.4360   17.8710   11.9140 O.2   108  VAL108     -0.2867
     21  CB        29.2910   20.6220   10.8890 C.3   108  VAL108      0.0252
     22  CG1       28.2190   21.6860   11.0690 C.3   108  VAL108      0.0019
     23  CG2       30.4070   21.1340    9.9860 C.3   108  VAL108      0.0019
     24  N         32.6210   17.7670   14.2630 N.3   110  VAL110     -0.1231
     25  CA        32.8300   17.1660   15.5750 C.3   110  VAL110      0.1692
     26  C         33.1330   15.6730   15.4310 C.2   110  VAL110      0.2591
     27  O         33.8410   15.0840   16.2470 O.2   110  VAL110     -0.2718
     28  CB        31.5990   17.3840   16.4920 C.3   110  VAL110      0.0266
     29  CG1       30.3510   16.7400   15.9030 C.3   110  VAL110      0.0020
     30  CG2       31.8660   16.8580   17.8960 C.3   110  VAL110      0.0020
     31  N         32.6060   15.0780   14.3720 N.am  111  LEU111     -0.1980
     32  CA        32.8850   13.6890   14.0470 C.3   111  LEU111      0.1596
     33  C         33.3280   13.5900   12.5970 C.2   111  LEU111      0.2287
     34  O         32.8050   14.3020   11.7370 O.2   111  LEU111     -0.2864
     35  CB        31.6470   12.8180   14.2770 C.3   111  LEU111      0.0297
     36  CG        31.1540   12.7400   15.7240 C.3   111  LEU111      0.0022
     37  CD1       29.8610   11.9420   15.8000 C.3   111  LEU111      0.0001
     38  CD2       32.2170   12.1190   16.6200 C.3   111  LEU111      0.0001
     39  N         33.3670   11.9620    9.1280 N.3   113  GLU113     -0.1245
     40  CA        32.5070   11.1000    8.3360 C.3   113  GLU113      0.1567
     41  C         33.2570   10.5450    7.1290 C.2   113  GLU113      0.2260
     42  O         34.0660   11.2330    6.5050 O.2   113  GLU113     -0.2867
     43  CB        31.2250   11.8290    7.8950 C.3   113  GLU113      0.0388
     44  CG        31.4310   12.9820    6.9150 C.3   113  GLU113      0.1160
     45  CD        32.1510   14.1730    7.5160 C.2   113  GLU113      0.3649
     46  OE1       31.7800   14.6060    8.6230 O.co2 113  GLU113     -0.2457
     47  OE2       33.0990   14.6800    6.8830 O.co2 113  GLU113     -0.2457
     48  N         21.9780    7.6380   10.8390 N.3   122  THR122     -0.1218
     49  CA        22.5670    8.8030   11.4630 C.3   122  THR122      0.1862
     50  C         21.5190    9.9010   11.6080 C.2   122  THR122      0.2287
     51  O         21.2580   10.6490   10.6640 O.2   122  THR122     -0.2866
     52  CB        23.7530    9.3200   10.6260 C.3   122  THR122      0.1770
     53  OG1       24.6250    8.2300   10.2900 O.3   122  THR122     -0.2211
     54  CG2       24.5370   10.3850   11.3770 C.3   122  THR122      0.0375
     55  N         20.0910   13.3250   13.0250 N.3   124  ILE124     -0.1245
     56  CA        20.5060   14.6270   13.5090 C.3   124  ILE124      0.1561
     57  C         19.3240   15.3320   14.1670 C.2   124  ILE124      0.2260
     58  O         18.5260   15.9890   13.4950 O.2   124  ILE124     -0.2867
     59  CB        21.0380   15.5070   12.3560 C.3   124  ILE124      0.0252
     60  CG1       22.0080   14.7120   11.4770 C.3   124  ILE124      0.0019
     61  CG2       21.7180   16.7520   12.9110 C.3   124  ILE124      0.0019
     62  CD1       22.3780   15.4220   10.1940 C.3   124  ILE124      0.0001
     63  N         18.4200   18.1890   16.3460 N.3   126  CYS126     -0.1235
     64  CA        18.8360   19.4410   16.9590 C.3   126  CYS126      0.1677
     65  C         18.0220   19.6870   18.2260 C.2   126  CYS126      0.2270
     66  O         16.7910   19.7430   18.1740 O.2   126  CYS126     -0.2867
     67  CB        18.6390   20.5880   15.9690 C.3   126  CYS126      0.0956
     68  SG        18.7020   20.0530   14.2280 S.3   126  CYS126     -0.0801
     69  N         16.0600   25.1120   18.3860 N.3   129  TYR129     -0.1241
     70  CA        15.6610   25.5890   17.0680 C.3   129  TYR129      0.1605
     71  C         14.9560   26.9370   17.1460 C.2   129  TYR129      0.2264
     72  O         13.7890   27.0210   17.5310 O.2   129  TYR129     -0.2867
     73  CB        14.7460   24.5620   16.3800 C.3   129  TYR129      0.0534
     74  CG        14.1900   25.0150   15.0460 C.ar  129  TYR129     -0.0201
     75  CD1       15.0310   25.3240   13.9830 C.ar  129  TYR129     -0.0009
     76  CD2       12.8180   25.1270   14.8520 C.ar  129  TYR129     -0.0009
     77  CE1       14.5190   25.7290   12.7650 C.ar  129  TYR129      0.0417
     78  CE2       12.3010   25.5330   13.6370 C.ar  129  TYR129      0.0417
     79  CZ        13.1550   25.8340   12.5980 C.ar  129  TYR129      0.1957
     80  OH        12.6460   26.2330   11.3850 O.3   129  TYR129     -0.2866
     81  N         20.7620   27.0720   17.0220 N.3   136  TRP136     -0.1241
     82  CA        20.4420   25.9420   17.8710 C.3   136  TRP136      0.1605
     83  C         21.6000   25.6870   18.8280 C.2   136  TRP136      0.2264
     84  O         22.7450   25.5180   18.4090 O.2   136  TRP136     -0.2867
     85  CB        20.1080   24.6870   17.0470 C.3   136  TRP136      0.0550
     86  CG        21.1330   24.3070   16.0200 C.ar  136  TRP136      0.0003
     87  CD1       22.1450   23.4050   16.1690 C.ar  136  TRP136      0.0946
     88  CD2       21.2290   24.8020   14.6770 C.ar  136  TRP136      0.0152
     89  NE1       22.8730   23.3160   15.0080 N.ar  136  TRP136     -0.2442
     90  CE2       22.3280   24.1630   14.0760 C.ar  136  TRP136      0.0810
     91  CE3       20.4930   25.7230   13.9270 C.ar  136  TRP136      0.0012
     92  CZ2       22.7100   24.4170   12.7600 C.ar  136  TRP136      0.0191
     93  CZ3       20.8720   25.9740   12.6220 C.ar  136  TRP136      0.0001
     94  CH2       21.9700   25.3230   12.0500 C.ar  136  TRP136      0.0015
     95  N         23.1670   20.1120   19.0210 N.3   139  ARG139     -0.1245
     96  CA        22.7870   19.1070   18.0460 C.3   139  ARG139      0.1563
     97  C         22.9950   17.7200   18.6460 C.2   139  ARG139      0.2260
     98  O         24.1250   17.2860   18.8720 O.2   139  ARG139     -0.2867
     99  CB        23.5780   19.2630   16.7410 C.3   139  ARG139      0.0307
    100  CG        25.0810   19.3990   16.9340 C.3   139  ARG139      0.0489
    101  CD        25.8210   19.3600   15.6060 C.3   139  ARG139      0.2205
    102  NE        25.3230   20.3650   14.6690 N.pl3 139  ARG139     -0.0865
    103  CZ        25.9630   21.4890   14.3660 C.cat 139  ARG139      0.5346
    104  NH1       27.1500   21.7580   14.8990 N.pl3 139  ARG139      0.1354
    105  NH2       25.4130   22.3340   13.5140 N.pl3 139  ARG139      0.1354
    106  N         23.2390   14.1480   18.2440 N.3   141  ILE141     -0.1245
    107  CA        23.4710   13.1690   17.2280 C.3   141  ILE141      0.1561
    108  C         23.2130   11.7650   17.7650 C.2   141  ILE141      0.2260
    109  O         23.7180   11.3720   18.8210 O.2   141  ILE141     -0.2867
    110  CB        24.9070   13.3020   16.6910 C.3   141  ILE141      0.0252
    111  CG1       25.2520   12.1480   15.7800 C.3   141  ILE141      0.0019
    112  CG2       25.9230   13.4050   17.8200 C.3   141  ILE141      0.0019
    113  CD1       24.5240   12.1870   14.4560 C.3   141  ILE141      0.0001
@<TRIPOS>BOND
     1    42    41    2
     2     4     3    2
     3     1     2    1
     4     6     5    1
     5    47    45   ar
     6    44    45    1
     7    44    43    1
     8     5     2    1
     9    41    40    1
    10    45    46   ar
    11     2     3    1
    12    43    40    1
    13    40    39    1
    14    23    21    1
    15    62    60    1
    16    53    52    1
    17    52    54    1
    18    52    49    1
    19    51    50    2
    20    48    49    1
    21    21    22    1
    22    21    18    1
    23    80    79    1
    24    49    50    1
    25    60    59    1
    26    34    33    2
    27    20    19    2
    28    94    93   ar
    29    94    92   ar
    30    19    18    1
    31    18    17    1
    32    59    61    1
    33    59    56    1
    34    15    13   ar
    35    15    16   ar
    36    33    32    1
    37    79    77   ar
    38    79    78   ar
    39    93    91   ar
    40    92    90   ar
    41    77    75   ar
    42    55    56    1
    43    13    12   ar
    44    16    14   ar
    45    58    57    2
    46    56    57    1
    47   105   103    1
    48    78    76   ar
    49    91    88   ar
    50    75    74   ar
    51    32    35    1
    52    32    31    1
    53    90    88   ar
    54    90    89   ar
    55    68    67    1
    56    24    25    1
    57    35    36    1
    58    12    14   ar
    59    12    11    1
    60   103   102    2
    61   103   104    1
    62    31    26   am
    63   113   111    1
    64   102   101    1
    65    88    86   ar
    66    76    74   ar
    67     7     8    1
    68    89    87   ar
    69    74    73    1
    70    26    25    1
    71    26    27    2
    72    11     8    1
    73    25    28    1
    74   101   100    1
    75    36    37    1
    76    36    38    1
    77   111   110    1
    78     8     9    1
    79    29    28    1
    80    67    64    1
    81    86    87   ar
    82    86    85    1
    83    63    64    1
    84    73    70    1
    85    28    30    1
    86   110   107    1
    87   110   112    1
    88    99   100    1
    89    99    96    1
    90    64    65    1
    91    81    82    1
    92    85    82    1
    93    70    71    1
    94    70    69    1
    95    71    72    2
    96   107   108    1
    97   107   106    1
    98     9    10    2
    99   108   109    2
   100    82    83    1
   101    96    97    1
   102    96    95    1
   103    66    65    2
   104    84    83    2
   105    97    98    2
