@<TRIPOS>MOLECULE
tmp/2mlsA01.pdb
 94 90 0 0 0
SMALL
GASTEIGER

@<TRIPOS>ATOM
      1  N         28.1700   37.4500   72.6000 N.3    20  ASN20      -0.1240
      2  CA        27.9000   37.2800   71.1900 C.3    20  ASN20       0.1653
      3  C         26.4400   37.2100   70.7900 C.2    20  ASN20       0.2266
      4  O         25.9800   37.9000   69.8900 O.2    20  ASN20      -0.2867
      5  CB        28.6800   36.0800   70.6600 C.3    20  ASN20       0.1155
      6  CG        28.6900   35.9200   69.1400 C.2    20  ASN20       0.2627
      7  OD1       27.9600   35.1000   68.6000 O.2    20  ASN20      -0.2716
      8  ND2       29.6500   36.5100   68.4300 N.am   20  ASN20      -0.0877
      9  N         35.5900   36.0700   74.0000 N.3    61  LEU61      -0.1245
     10  CA        34.4000   35.9700   73.1800 C.3    61  LEU61       0.1561
     11  C         33.5300   35.0400   74.0100 C.2    61  LEU61       0.2260
     12  O         33.9100   33.8800   74.1600 O.2    61  LEU61      -0.2867
     13  CB        34.7600   35.3300   71.8400 C.3    61  LEU61       0.0270
     14  CG        33.6100   35.2300   70.8400 C.3    61  LEU61       0.0019
     15  CD1       33.0800   36.5100   70.1900 C.3    61  LEU61       0.0001
     16  CD2       34.1200   34.4300   69.6400 C.3    61  LEU61       0.0001
     17  N         30.1200   33.2000   73.8900 N.3    63  VAL63      -0.1245
     18  CA        29.3300   32.6600   72.7900 C.3    63  VAL63       0.1561
     19  C         28.6200   31.4400   73.3500 C.2    63  VAL63       0.2260
     20  O         29.1800   30.5800   74.0400 O.2    63  VAL63      -0.2867
     21  CB        30.1800   32.6100   71.5200 C.3    63  VAL63       0.0252
     22  CG1       31.4300   31.7300   71.6500 C.3    63  VAL63       0.0019
     23  CG2       29.2700   32.2800   70.3400 C.3    63  VAL63       0.0019
     24  N         26.6600   28.2400   72.1200 N.3    65  ALA65      -0.1245
     25  CA        26.6200   27.2900   71.0300 C.3    65  ALA65       0.1562
     26  C         26.3800   25.8600   71.4900 C.2    65  ALA65       0.2260
     27  O         26.5200   25.5900   72.6800 O.2    65  ALA65      -0.2867
     28  CB        27.9300   27.5200   70.2800 C.3    65  ALA65       0.0290
     29  N         30.7900   22.2800   66.4900 N.3    69  HIS69      -0.1226
     30  CA        30.5000   23.6500   66.1200 C.3    69  HIS69       0.1752
     31  C         31.6800   24.3700   65.4800 C.2    69  HIS69       0.2597
     32  O         31.6100   25.5800   65.2700 O.2    69  HIS69      -0.2718
     33  CB        30.0100   24.2700   67.4300 C.3    69  HIS69       0.0759
     34  CG        31.0600   24.5700   68.4700 C.ar   69  HIS69       0.0818
     35  ND1       31.7700   25.7500   68.3800 N.ar   69  HIS69      -0.2268
     36  CD2       31.7100   23.7800   69.3800 C.ar   69  HIS69       0.1154
     37  CE1       32.7600   25.6300   69.2800 C.ar   69  HIS69       0.1986
     38  NE2       32.7500   24.4900   69.9800 N.ar   69  HIS69      -0.2212
     39  N         32.8300   23.7000   65.4400 N.am   70  GLY70      -0.1942
     40  CA        34.1400   24.2900   65.2200 C.3    70  GLY70       0.2014
     41  C         35.0400   23.9900   66.4100 C.2    70  GLY70       0.2639
     42  O         34.4900   23.5600   67.4200 O.2    70  GLY70      -0.2714
     43  N         36.3600   23.9800   66.2100 N.am   71  ASP71      -0.1957
     44  CA        37.3500   23.7600   67.2500 C.3    71  ASP71       0.1840
     45  C         37.4800   22.2900   67.6200 C.2    71  ASP71       0.2622
     46  O         38.2600   22.0200   68.5300 O.2    71  ASP71      -0.2715
     47  CB        37.3400   24.7400   68.4300 C.3    71  ASP71       0.1450
     48  CG        36.2000   24.5700   69.4300 C.2    71  ASP71       0.3671
     49  OD1       35.8500   23.4900   69.9400 O.co2  71  ASP71      -0.2456
     50  OD2       35.5500   25.4700   70.0000 O.co2  71  ASP71      -0.2456
     51  N         36.8700   21.4100   66.8200 N.am   72  PHE72      -0.1974
     52  CA        36.9100   19.9600   66.8800 C.3    72  PHE72       0.1639
     53  C         36.1000   19.4600   68.0600 C.2    72  PHE72       0.2290
     54  O         35.2900   18.5600   67.8600 O.2    72  PHE72      -0.2864
     55  CB        38.2500   19.2200   66.8400 C.3    72  PHE72       0.0560
     56  CG        39.0600   19.6700   65.6500 C.ar   72  PHE72      -0.0200
     57  CD1       38.8800   19.0800   64.3900 C.ar   72  PHE72      -0.0042
     58  CD2       39.9100   20.7700   65.8300 C.ar   72  PHE72      -0.0042
     59  CE1       39.5400   19.6700   63.3000 C.ar   72  PHE72      -0.0003
     60  CE2       40.4200   21.4500   64.7200 C.ar   72  PHE72      -0.0003
     61  CZ        40.2000   20.9000   63.4600 C.ar   72  PHE72      -0.0000
     62  N         39.0400   28.1700   77.1000 N.3    86  PHE86      -0.1241
     63  CA        40.4100   28.1500   76.6200 C.3    86  PHE86       0.1605
     64  C         41.3700   28.6300   77.7000 C.2    86  PHE86       0.2264
     65  O         41.0600   28.7100   78.8900 O.2    86  PHE86      -0.2867
     66  CB        40.4100   29.0600   75.3900 C.3    86  PHE86       0.0534
     67  CG        39.6100   28.6400   74.1800 C.ar   86  PHE86      -0.0203
     68  CD1       38.2600   28.9700   74.0600 C.ar   86  PHE86      -0.0042
     69  CD2       40.1900   27.7600   73.2500 C.ar   86  PHE86      -0.0042
     70  CE1       37.5000   28.4300   73.0100 C.ar   86  PHE86      -0.0003
     71  CE2       39.4400   27.2600   72.1800 C.ar   86  PHE86      -0.0003
     72  CZ        38.0800   27.5800   72.0700 C.ar   86  PHE86      -0.0000
     73  N         42.0300   33.4700   68.7300 N.3    92  ILE92      -0.1231
     74  CA        41.2300   32.3400   69.1300 C.3    92  ILE92       0.1692
     75  C         41.9000   31.6200   70.2900 C.2    92  ILE92       0.2592
     76  O         42.9000   30.9200   70.1400 O.2    92  ILE92      -0.2718
     77  CB        41.0100   31.3900   67.9500 C.3    92  ILE92       0.0266
     78  CG1       40.4900   29.9800   68.2100 C.3    92  ILE92       0.0019
     79  CG2       42.2100   31.2200   67.0100 C.3    92  ILE92       0.0020
     80  CD1       39.2100   29.8900   69.0500 C.3    92  ILE92       0.0001
     81  N         41.3400   31.7000   71.5000 N.am   93  GLY93      -0.1957
     82  CA        41.9100   31.4900   72.8200 C.3    93  GLY93       0.1869
     83  C         41.7500   32.7900   73.6000 C.2    93  GLY93       0.2309
     84  O         41.5800   33.9100   73.1100 O.2    93  GLY93      -0.2863
     85  N         33.4400   29.6300   75.7300 N.3    97  HIS97      -0.1241
     86  CA        32.3100   29.2000   74.9400 C.3    97  HIS97       0.1621
     87  C         31.4000   28.2700   75.7400 C.2    97  HIS97       0.2264
     88  O         31.9000   27.2200   76.1300 O.2    97  HIS97      -0.2867
     89  CB        32.8800   28.3700   73.7900 C.3    97  HIS97       0.0745
     90  CG        33.6200   29.1000   72.7000 C.ar   97  HIS97       0.0817
     91  ND1       33.8900   28.4300   71.5200 N.ar   97  HIS97      -0.2268
     92  CD2       34.2600   30.3100   72.6700 C.ar   97  HIS97       0.1154
     93  CE1       34.6400   29.2500   70.7800 C.ar   97  HIS97       0.1986
     94  NE2       35.0000   30.3300   71.5000 N.ar   97  HIS97      -0.2212
@<TRIPOS>BOND
     1    59    61   ar
     2    59    57   ar
     3    61    60   ar
     4    57    56   ar
     5    60    58   ar
     6    40    39    1
     7    40    41    1
     8    32    31    2
     9    39    31   am
    10    31    30    1
    11    56    58   ar
    12    56    55    1
    13    30    29    1
    14    30    33    1
    15    43    41   am
    16    43    44    1
    17    41    42    2
    18    51    52    1
    19    51    45   am
    20    55    52    1
    21    52    53    1
    22    79    77    1
    23    44    45    1
    24    44    47    1
    25    33    34    1
    26    45    46    2
    27    54    53    2
    28    77    78    1
    29    77    74    1
    30    78    80    1
    31    35    34   ar
    32    35    37   ar
    33     8     6   am
    34    47    48    1
    35    34    36   ar
    36     7     6    2
    37    73    74    1
    38    74    75    1
    39     6     5    1
    40    37    38   ar
    41    36    38   ar
    42    48    49   ar
    43    48    50   ar
    44    16    14    1
    45     4     3    2
    46    76    75    2
    47    15    14    1
    48    28    25    1
    49    75    81   am
    50    23    21    1
    51     5     2    1
    52    93    94   ar
    53    93    91   ar
    54     3     2    1
    55    14    13    1
    56    25    26    1
    57    25    24    1
    58     2     1    1
    59    26    27    2
    60    81    82    1
    61    94    92   ar
    62    91    90   ar
    63    21    22    1
    64    21    18    1
    65    13    10    1
    66    72    71   ar
    67    72    70   ar
    68    71    69   ar
    69    92    90   ar
    70    90    89    1
    71    18    19    1
    72    18    17    1
    73    82    83    1
    74    70    68   ar
    75    84    83    2
    76    10     9    1
    77    10    11    1
    78    69    67   ar
    79    19    20    2
    80    89    86    1
    81    11    12    2
    82    68    67   ar
    83    67    66    1
    84    86    85    1
    85    86    87    1
    86    66    63    1
    87    87    88    2
    88    63    62    1
    89    63    64    1
    90    64    65    2
