@<TRIPOS>MOLECULE
tmp/2mm3A00.pdb
 234 220 0 0 0
SMALL
GASTEIGER

@<TRIPOS>ATOM
      1  N        -24.4010   14.0120   14.1660 N.3     2  PHE2       -0.1241
      2  CA       -24.2360   15.4310   13.8770 C.3     2  PHE2        0.1605
      3  C        -23.7640   16.3340   15.0030 C.2     2  PHE2        0.2264
      4  O        -23.8060   17.5570   14.9150 O.2     2  PHE2       -0.2867
      5  CB       -25.5190   15.9350   13.2620 C.3     2  PHE2        0.0534
      6  CG       -25.6740   15.4510   11.8600 C.ar    2  PHE2       -0.0203
      7  CD1      -24.9020   16.0620   10.8630 C.ar    2  PHE2       -0.0042
      8  CD2      -26.6760   14.5210   11.5420 C.ar    2  PHE2       -0.0042
      9  CE1      -25.1570   15.7640    9.5260 C.ar    2  PHE2       -0.0003
     10  CE2      -26.9320   14.2420   10.1940 C.ar    2  PHE2       -0.0003
     11  CZ       -26.1800   14.8720    9.1890 C.ar    2  PHE2       -0.0000
     12  N        -21.5720   24.7400   16.4780 N.3     6  PHE6       -0.1241
     13  CA       -21.3960   25.1680   15.0940 C.3     6  PHE6        0.1605
     14  C        -21.8010   26.6370   15.0240 C.2     6  PHE6        0.2264
     15  O        -22.7510   27.0420   15.7070 O.2     6  PHE6       -0.2867
     16  CB       -22.2850   24.2910   14.2020 C.3     6  PHE6        0.0534
     17  CG       -22.1470   22.8030   14.4400 C.ar    6  PHE6       -0.0203
     18  CD1      -21.0570   22.1350   13.8760 C.ar    6  PHE6       -0.0042
     19  CD2      -23.0590   22.0860   15.2310 C.ar    6  PHE6       -0.0042
     20  CE1      -20.8570   20.7630   14.1150 C.ar    6  PHE6       -0.0003
     21  CE2      -22.8890   20.7070   15.4270 C.ar    6  PHE6       -0.0003
     22  CZ       -21.7870   20.0450   14.8720 C.ar    6  PHE6       -0.0000
     23  N        -23.0310   29.7760   12.3790 N.3     8  MET8       -0.1196
     24  CA       -23.4040   30.0390   11.0040 C.3     8  MET8        0.1786
     25  C        -22.8280   31.3480   10.4780 C.2     8  MET8        0.2306
     26  O        -22.5530   32.2980   11.2010 O.2     8  MET8       -0.2863
     27  CB       -24.9740   30.1120   10.9830 C.2     8  MET8        0.0070
     28  CG       -25.6010   30.2400    9.6500 C.2     8  MET8        0.0282
     29  SD       -27.4100   30.2840    9.5770 S.3     8  MET8       -0.1125
     30  CE       -27.6310   31.8680   10.4420 C.3     8  MET8        0.0742
     31  N        -26.4590   32.9970    4.5130 N.3    11  GLU11      -0.1245
     32  CA       -27.8510   33.0580    4.3430 C.3    11  GLU11       0.1567
     33  C        -28.2290   33.4630    2.9490 C.2    11  GLU11       0.2260
     34  O        -27.9290   34.5730    2.5200 O.2    11  GLU11      -0.2867
     35  CB       -28.5380   33.9150    5.4510 C.3    11  GLU11       0.0388
     36  CG       -27.8280   34.0040    6.8680 C.3    11  GLU11       0.1160
     37  CD       -26.6990   35.0670    6.9420 C.2    11  GLU11       0.3649
     38  OE1      -26.9840   36.2980    6.6770 O.co2  11  GLU11      -0.2457
     39  OE2      -25.5440   34.8000    7.3400 O.co2  11  GLU11      -0.2457
     40  N        -32.9050   34.2820    2.5040 N.3    14  TYR14      -0.1241
     41  CA       -33.2080   34.2220    3.9410 C.3    14  TYR14       0.1605
     42  C        -34.4930   34.9590    4.3910 C.2    14  TYR14       0.2264
     43  O        -35.2410   34.4150    5.1650 O.2    14  TYR14      -0.2867
     44  CB       -31.9110   34.5700    4.7430 C.3    14  TYR14       0.0534
     45  CG       -31.4640   36.0320    4.6000 C.ar   14  TYR14      -0.0201
     46  CD1      -30.5370   36.4540    3.5780 C.ar   14  TYR14      -0.0009
     47  CD2      -31.9030   36.9500    5.5100 C.ar   14  TYR14      -0.0009
     48  CE1      -30.3360   37.8310    3.3310 C.ar   14  TYR14       0.0417
     49  CE2      -31.6040   38.3170    5.3030 C.ar   14  TYR14       0.0417
     50  CZ       -30.7390   38.7720    4.2450 C.ar   14  TYR14       0.1957
     51  OH       -30.4540   40.1460    4.0130 O.3    14  TYR14      -0.2866
     52  N        -37.8000   32.6510    5.3430 N.3    18  MET18      -0.1245
     53  CA       -38.2530   32.4480    6.7130 C.3    18  MET18       0.1570
     54  C        -39.6860   32.9600    6.9980 C.2    18  MET18       0.2261
     55  O        -40.4680   32.3560    7.7460 O.2    18  MET18      -0.2867
     56  CB       -37.3250   33.0040    7.7880 C.3    18  MET18       0.0387
     57  CG       -36.0040   32.2110    7.9370 C.3    18  MET18       0.0595
     58  SD       -36.3530   30.4800    8.5310 S.3    18  MET18      -0.1393
     59  CE       -34.6160   30.0410    8.5530 C.3    18  MET18       0.0692
     60  N        -36.9520   35.5600   14.2980 N.3    27  VAL27      -0.1231
     61  CA       -35.6650   34.8730   14.1080 C.3    27  VAL27       0.1692
     62  C        -34.8260   35.5240   12.9960 C.2    27  VAL27       0.2591
     63  O        -33.6220   35.6180   13.1120 O.2    27  VAL27      -0.2718
     64  CB       -35.7800   33.3850   13.8840 C.3    27  VAL27       0.0266
     65  CG1      -34.4200   32.7370   13.4590 C.3    27  VAL27       0.0020
     66  CG2      -36.4520   32.7230   15.1000 C.3    27  VAL27       0.0020
     67  N        -35.4760   36.0450   11.9520 N.am   28  ILE28      -0.1980
     68  CA       -34.8230   36.5640   10.7380 C.3    28  ILE28       0.1595
     69  C        -34.0500   37.8610   10.9740 C.2    28  ILE28       0.2287
     70  O        -32.8890   37.9740   10.5920 O.2    28  ILE28      -0.2864
     71  CB       -35.8020   36.7470    9.5460 C.3    28  ILE28       0.0276
     72  CG1      -37.2570   36.2810    9.7910 C.3    28  ILE28       0.0022
     73  CG2      -35.1580   36.0850    8.3220 C.3    28  ILE28       0.0022
     74  CD1      -38.2380   36.7110    8.6910 C.3    28  ILE28       0.0001
     75  N        -30.8960   36.5210   12.6850 N.3    31  ALA31      -0.1245
     76  CA       -30.0590   35.8400   11.7020 C.3    31  ALA31       0.1562
     77  C        -29.3270   36.7050   10.7050 C.2    31  ALA31       0.2260
     78  O        -28.1410   36.5630   10.5450 O.2    31  ALA31      -0.2867
     79  CB       -30.9370   34.9030   10.8700 C.3    31  ALA31       0.0290
     80  N        -27.0470   33.0860   13.6720 N.3    36  ILE36      -0.1231
     81  CA       -27.3980   32.0520   14.6500 C.3    36  ILE36       0.1692
     82  C        -26.3000   31.1220   15.1080 C.2    36  ILE36       0.2592
     83  O        -25.4030   30.8330   14.3210 O.2    36  ILE36      -0.2718
     84  CB       -28.6670   31.3490   14.1850 C.3    36  ILE36       0.0266
     85  CG1      -29.6990   32.2740   13.3980 C.3    36  ILE36       0.0019
     86  CG2      -29.3430   30.7070   15.3790 C.3    36  ILE36       0.0020
     87  CD1      -30.2190   33.4290   14.2530 C.3    36  ILE36       0.0001
     88  N        -26.2790   30.5420   16.3260 N.am   37  VAL37      -0.1966
     89  CA       -25.3930   29.5700   16.8220 C.3    37  VAL37       0.1727
     90  C        -26.2520   28.3070   17.0760 C.2    37  VAL37       0.2616
     91  O        -27.4400   28.3570   17.3610 O.2    37  VAL37      -0.2715
     92  CB       -24.5830   29.9900   18.1110 C.3    37  VAL37       0.0290
     93  CG1      -23.6420   31.1700   17.7400 C.3    37  VAL37       0.0023
     94  CG2      -25.4970   30.4250   19.2430 C.3    37  VAL37       0.0023
     95  N        -25.5940   27.1580   17.2760 N.am   38  THR38      -0.1951
     96  CA       -26.2510   25.9280   17.7800 C.3    38  THR38       0.1897
     97  C        -25.3810   24.9830   18.6070 C.2    38  THR38       0.2313
     98  O        -24.2020   24.8050   18.3050 O.2    38  THR38      -0.2863
     99  CB       -26.9350   25.1780   16.6240 C.3    38  THR38       0.1794
    100  OG1      -27.9210   24.2510   17.0050 O.3    38  THR38      -0.2208
    101  CG2      -25.9000   24.3450   15.8960 C.3    38  THR38       0.0378
    102  N        -25.8220   20.7960   19.0940 N.3    40  VAL40      -0.1245
    103  CA       -26.5390   19.6020   18.6020 C.3    40  VAL40       0.1561
    104  C        -26.2040   18.4040   19.4680 C.2    40  VAL40       0.2260
    105  O        -25.0450   18.2670   19.8530 O.2    40  VAL40      -0.2867
    106  CB       -26.1810   19.2980   17.1380 C.3    40  VAL40       0.0252
    107  CG1      -26.9570   18.1160   16.5380 C.3    40  VAL40       0.0019
    108  CG2      -26.4110   20.5210   16.2530 C.3    40  VAL40       0.0019
    109  N        -32.7270   12.5390   18.4530 N.3    47  PHE47      -0.1241
    110  CA       -32.1080   13.7330   18.0030 C.3    47  PHE47       0.1605
    111  C        -32.5740   14.9470   18.8510 C.2    47  PHE47       0.2264
    112  O        -33.7220   14.8860   19.2530 O.2    47  PHE47      -0.2867
    113  CB       -32.5650   13.9340   16.5660 C.3    47  PHE47       0.0534
    114  CG       -32.1250   15.2320   15.9320 C.ar   47  PHE47      -0.0203
    115  CD1      -30.8250   15.3580   15.4260 C.ar   47  PHE47      -0.0042
    116  CD2      -33.0130   16.3100   15.8520 C.ar   47  PHE47      -0.0042
    117  CE1      -30.4150   16.5610   14.8380 C.ar   47  PHE47      -0.0003
    118  CE2      -32.6050   17.5130   15.2670 C.ar   47  PHE47      -0.0003
    119  CZ       -31.3050   17.6390   14.7580 C.ar   47  PHE47      -0.0000
    120  N        -31.5710   19.3070   18.4810 N.3    49  TRP49      -0.1241
    121  CA       -30.7580   20.5200   18.3540 C.3    49  TRP49       0.1605
    122  C        -31.2970   21.5920   19.2830 C.2    49  TRP49       0.2264
    123  O        -32.4990   21.6830   19.5550 O.2    49  TRP49      -0.2867
    124  CB       -30.5440   20.9610   16.8940 C.3    49  TRP49       0.0550
    125  CG       -31.5480   21.7480   16.0960 C.ar   49  TRP49       0.0003
    126  CD1      -32.2820   22.8120   16.5090 C.ar   49  TRP49       0.0946
    127  CD2      -31.6710   21.7560   14.6400 C.ar   49  TRP49       0.0152
    128  NE1      -32.8750   23.4260   15.4240 N.ar   49  TRP49      -0.2442
    129  CE2      -32.4580   22.8720   14.2360 C.ar   49  TRP49       0.0810
    130  CE3      -31.1140   20.9740   13.6110 C.ar   49  TRP49       0.0012
    131  CZ2      -32.6580   23.2110   12.8890 C.ar   49  TRP49       0.0191
    132  CZ3      -31.2940   21.3060   12.2530 C.ar   49  TRP49       0.0001
    133  CH2      -32.0660   22.4220   11.8860 C.ar   49  TRP49       0.0015
    134  N        -30.6900   25.7640   19.3440 N.3    51  GLN51      -0.1245
    135  CA       -30.1520   26.9640   18.7050 C.3    51  GLN51       0.1566
    136  C        -30.2940   28.1550   19.6380 C.2    51  GLN51       0.2260
    137  O        -31.1280   28.1730   20.5490 O.2    51  GLN51      -0.2867
    138  CB       -30.8550   27.2520   17.3810 C.3    51  GLN51       0.0367
    139  CG       -30.6750   26.1630   16.3210 C.3    51  GLN51       0.0905
    140  CD       -31.8270   26.2020   15.3320 C.2    51  GLN51       0.2608
    141  OE1      -32.9860   26.2250   15.7180 O.2    51  GLN51      -0.2717
    142  NE2      -31.6110   25.9240   14.0750 N.am   51  GLN51      -0.0878
    143  N        -33.9860   28.2880   21.1010 N.3    59  MET59      -0.1245
    144  CA       -35.0670   27.4950   20.4530 C.3    59  MET59       0.1570
    145  C        -34.5070   26.0450   20.1850 C.2    59  MET59       0.2261
    146  O        -33.3720   25.9600   19.7500 O.2    59  MET59      -0.2867
    147  CB       -35.5480   28.0840   19.1280 C.3    59  MET59       0.0387
    148  CG       -34.3570   28.4980   18.1590 C.3    59  MET59       0.0595
    149  SD       -34.5550   29.6860   16.8510 S.3    59  MET59      -0.1393
    150  CE       -32.9670   29.7250   15.9710 C.3    59  MET59       0.0692
    151  N        -37.8100   26.7570   14.0660 N.3    74  MET74      -0.1245
    152  CA       -37.0570   27.7830   14.6530 C.3    74  MET74       0.1570
    153  C        -37.8030   28.6040   15.6940 C.2    74  MET74       0.2261
    154  O        -37.3390   29.0190   16.7630 O.2    74  MET74      -0.2867
    155  CB       -36.5110   28.8010   13.6040 C.3    74  MET74       0.0387
    156  CG       -35.7010   28.1990   12.3730 C.3    74  MET74       0.0595
    157  SD       -34.3230   27.2170   12.9380 S.3    74  MET74      -0.1393
    158  CE       -33.6630   26.8600   11.3300 C.3    74  MET74       0.0692
    159  N        -30.5400   14.5240    7.2770 N.3    90  LEU90      -0.1245
    160  CA       -31.9480   14.4710    7.7170 C.3    90  LEU90       0.1561
    161  C        -32.8620   15.3050    6.8080 C.2    90  LEU90       0.2260
    162  O        -32.4900   16.4080    6.4110 O.2    90  LEU90      -0.2867
    163  CB       -32.0920   14.8380    9.2020 C.3    90  LEU90       0.0270
    164  CG       -31.8800   13.6430   10.1520 C.3    90  LEU90       0.0019
    165  CD1      -30.4140   13.2580   10.3230 C.3    90  LEU90       0.0001
    166  CD2      -32.4360   13.9560   11.5410 C.3    90  LEU90       0.0001
    167  N        -30.0780   18.1690    5.2670 N.3   101  SER101     -0.1202
    168  CA       -29.2240   18.6220    6.3560 C.3   101  SER101      0.2020
    169  C        -28.0610   17.6170    6.4710 C.2   101  SER101      0.2618
    170  O        -28.2580   16.3900    6.6590 O.2   101  SER101     -0.2717
    171  CB       -30.0610   18.7260    7.6580 C.3   101  SER101      0.2103
    172  OG       -30.3570   20.0680    8.0730 O.3   101  SER101     -0.2182
    173  N        -26.8030   18.1570    6.3390 N.am  102  GLU102     -0.1979
    174  CA       -25.6570   17.2900    6.1730 C.3   102  GLU102      0.1602
    175  C        -24.3110   17.8150    6.7050 C.2   102  GLU102      0.2287
    176  O        -24.1830   18.9980    6.9700 O.2   102  GLU102     -0.2864
    177  CB       -25.4920   16.8770    4.7340 C.3   102  GLU102      0.0415
    178  CG       -24.9640   17.9190    3.7830 C.3   102  GLU102      0.1163
    179  CD       -25.0940   17.4810    2.3440 C.2   102  GLU102      0.3649
    180  OE1      -24.4670   16.4710    1.8970 O.co2 102  GLU102     -0.2457
    181  OE2      -25.6480   18.2830    1.5550 O.co2 102  GLU102     -0.2457
    182  N        -20.6280   22.2580    8.0310 N.3   108  LEU108     -0.1231
    183  CA       -22.0280   21.8360    8.1970 C.3   108  LEU108      0.1693
    184  C        -22.9170   22.6070    7.2110 C.2   108  LEU108      0.2592
    185  O        -22.7670   23.8280    7.1200 O.2   108  LEU108     -0.2718
    186  CB       -22.4100   22.0620    9.6740 C.3   108  LEU108      0.0284
    187  CG       -21.9120   20.9990   10.6790 C.3   108  LEU108      0.0019
    188  CD1      -22.4750   19.6060   10.4190 C.3   108  LEU108      0.0001
    189  CD2      -20.3900   20.8590   10.7510 C.3   108  LEU108      0.0001
    190  N        -23.7080   21.9010    6.3850 N.am  109  VAL109     -0.1966
    191  CA       -24.2080   22.4130    5.1180 C.3   109  VAL109      0.1727
    192  C        -25.6810   22.0230    4.9670 C.2   109  VAL109      0.2616
    193  O        -26.0210   20.8000    5.0400 O.2   109  VAL109     -0.2715
    194  CB       -23.4550   21.9210    3.9640 C.3   109  VAL109      0.0290
    195  CG1      -23.6960   22.8190    2.7200 C.3   109  VAL109      0.0023
    196  CG2      -21.9740   21.9510    4.3060 C.3   109  VAL109      0.0023
    197  N        -26.5730   22.9700    4.7280 N.am  110  GLU110     -0.1977
    198  CA       -28.0080   22.6840    4.7000 C.3   110  GLU110      0.1602
    199  C        -28.6580   23.2950    3.4840 C.2   110  GLU110      0.2287
    200  O        -28.4100   24.4590    3.1780 O.2   110  GLU110     -0.2864
    201  CB       -28.6120   23.1650    6.0120 C.3   110  GLU110      0.0415
    202  CG       -30.1280   22.9930    6.2040 C.3   110  GLU110      0.1163
    203  CD       -30.5610   23.3840    7.6280 C.2   110  GLU110      0.3649
    204  OE1      -29.7120   23.8860    8.4000 O.co2 110  GLU110     -0.2457
    205  OE2      -31.7760   23.4190    7.9190 O.co2 110  GLU110     -0.2457
    206  N        -33.3460   27.5090   -0.4870 N.3   119  TYR119     -0.1241
    207  CA       -32.5010   28.0980    0.5440 C.3   119  TYR119      0.1605
    208  C        -31.2930   27.2510    0.7950 C.2   119  TYR119      0.2264
    209  O        -31.2810   26.0580    0.7400 O.2   119  TYR119     -0.2867
    210  CB       -33.3600   28.3000    1.7680 C.3   119  TYR119      0.0534
    211  CG       -32.5300   28.9890    2.8240 C.ar  119  TYR119     -0.0201
    212  CD1      -32.3610   30.3790    2.7870 C.ar  119  TYR119     -0.0009
    213  CD2      -31.9280   28.2360    3.8410 C.ar  119  TYR119     -0.0009
    214  CE1      -31.5900   31.0160    3.7670 C.ar  119  TYR119      0.0417
    215  CE2      -31.1570   28.8750    4.8200 C.ar  119  TYR119      0.0417
    216  CZ       -30.9890   30.2650    4.7840 C.ar  119  TYR119      0.1957
    217  OH       -30.2410   30.8840    5.7350 O.3   119  TYR119     -0.2866
    218  N        -27.4130   27.1000    3.4330 N.3   121  ARG121     -0.1245
    219  CA       -26.8580   27.5690    4.6610 C.3   121  ARG121      0.1563
    220  C        -25.6130   26.8530    4.9080 C.2   121  ARG121      0.2260
    221  O        -25.4200   25.7150    4.4770 O.2   121  ARG121     -0.2867
    222  CB       -27.9620   27.2600    5.7100 C.3   121  ARG121      0.0307
    223  CG       -27.6310   27.5680    7.1130 C.3   121  ARG121      0.0489
    224  CD       -28.6260   27.0220    8.1110 C.3   121  ARG121      0.2205
    225  NE       -29.9180   27.7540    8.0630 N.pl3 121  ARG121     -0.0865
    226  CZ       -31.0410   27.2170    8.5720 C.cat 121  ARG121      0.5346
    227  NH1      -31.0720   26.0620    9.1720 N.pl3 121  ARG121      0.1354
    228  NH2      -32.1970   27.9140    8.4880 N.pl3 121  ARG121      0.1354
    229  N        -22.0500   26.4820    7.8640 N.3   123  SER123     -0.1217
    230  CA       -21.5820   26.6170    9.2180 C.3   123  SER123      0.1889
    231  C        -20.2710   25.8760    9.4660 C.2   123  SER123      0.2288
    232  O        -19.8890   24.9290    8.7710 O.2   123  SER123     -0.2866
    233  CB       -22.7180   26.1490   10.1100 C.3   123  SER123      0.2089
    234  OG       -22.3600   26.2440   11.4570 O.3   123  SER123     -0.2183
@<TRIPOS>BOND
     1   206   207    1
     2   207   208    1
     3   207   210    1
     4   209   208    2
     5   181   179   ar
     6   210   211    1
     7   180   179   ar
     8   179   178    1
     9    40    41    1
    10    34    33    2
    11   195   194    1
    12   212   211   ar
    13   212   214   ar
    14   211   213   ar
    15    33    32    1
    16   200   199    2
    17    48    46   ar
    18    48    50   ar
    19   218   219    1
    20   199   198    1
    21    46    45   ar
    22   214   216   ar
    23   178   177    1
    24   213   215   ar
    25    41    42    1
    26    41    44    1
    27   194   196    1
    28   194   191    1
    29    51    50    1
    30    50    49   ar
    31    32    31    1
    32    32    35    1
    33    42    43    2
    34   221   220    2
    35    45    44    1
    36    45    47   ar
    37   219   220    1
    38   219   222    1
    39   198   197    1
    40   198   201    1
    41   197   192   am
    42   177   174    1
    43   216   215   ar
    44   216   217    1
    45   192   193    2
    46   192   191    1
    47   191   190    1
    48   167   168    1
    49    49    47   ar
    50    52    53    1
    51    35    36    1
    52   222   223    1
    53   201   202    1
    54   174   173    1
    55   174   175    1
    56   202   203    1
    57   173   169   am
    58   168   169    1
    59   168   171    1
    60   190   184   am
    61   162   161    2
    62   169   170    2
    63    38    37   ar
    64   175   176    2
    65    53    54    1
    66    53    56    1
    67   161   160    1
    68    36    37    1
    69    37    39   ar
    70    54    55    2
    71   223   224    1
    72   185   184    2
    73   184   183    1
    74   159   160    1
    75   203   205   ar
    76   203   204   ar
    77   171   172    1
    78   160   163    1
    79    56    57    1
    80   229   230    1
    81    57    58    1
    82   182   183    1
    83   225   224    1
    84   225   226    2
    85   183   186    1
    86    73    71    1
    87   228   226    1
    88    58    59    1
    89   226   227    1
    90    74    72    1
    91   232   231    2
    92    11     9   ar
    93    11    10   ar
    94   163   164    1
    95   230   231    1
    96   230   233    1
    97     9     7   ar
    98    71    72    1
    99    71    68    1
   100    29    28    1
   101    29    30    1
   102    28    27    2
   103   186   187    1
   104   233   234    1
   105   164   165    1
   106   164   166    1
   107    10     8   ar
   108   188   187    1
   109    25    24    1
   110    25    26    2
   111    78    77    2
   112    70    69    2
   113   187   189    1
   114    77    76    1
   115    68    69    1
   116    68    67    1
   117     7     6   ar
   118    79    76    1
   119    27    24    1
   120    24    23    1
   121   158   157    1
   122     8     6   ar
   123    76    75    1
   124     6     5    1
   125   133   132   ar
   126   133   131   ar
   127    67    62   am
   128   132   130   ar
   129   156   157    1
   130   156   155    1
   131   131   129   ar
   132    62    63    2
   133    62    61    1
   134     5     2    1
   135    85    84    1
   136    85    87    1
   137    65    64    1
   138   155   152    1
   139   130   127   ar
   140    80    81    1
   141    18    20   ar
   142    18    17   ar
   143     2     1    1
   144     2     3    1
   145    64    61    1
   146    64    66    1
   147   151   152    1
   148   142   140   am
   149    61    60    1
   150    20    22   ar
   151    84    81    1
   152    84    86    1
   153    16    17    1
   154    16    13    1
   155   129   127   ar
   156   129   128   ar
   157    83    82    2
   158    17    19   ar
   159   127   125   ar
   160    81    82    1
   161   152   153    1
   162   119   117   ar
   163   119   118   ar
   164   117   115   ar
   165    22    21   ar
   166     4     3    2
   167    14    13    1
   168    14    15    2
   169    13    12    1
   170    82    88   am
   171    19    21   ar
   172   118   116   ar
   173   140   141    2
   174   140   139    1
   175   128   126   ar
   176   115   114   ar
   177   153   154    2
   178   116   114   ar
   179   101    99    1
   180   114   113    1
   181   150   149    1
   182   125   126   ar
   183   125   124    1
   184   108   106    1
   185   139   138    1
   186    88    89    1
   187   107   106    1
   188   113   110    1
   189    99   100    1
   190    99    96    1
   191    89    90    1
   192    89    92    1
   193   149   148    1
   194   124   121    1
   195    90    95   am
   196    90    91    2
   197   106   103    1
   198    95    96    1
   199   138   135    1
   200    93    92    1
   201    96    97    1
   202   110   109    1
   203   110   111    1
   204    92    94    1
   205   148   147    1
   206    98    97    2
   207   121   120    1
   208   121   122    1
   209   103   102    1
   210   103   104    1
   211   135   134    1
   212   135   136    1
   213   111   112    2
   214   147   144    1
   215   122   123    2
   216   104   105    2
   217   136   137    2
   218   146   145    2
   219   145   144    1
   220   144   143    1
