@<TRIPOS>MOLECULE
tmp/2mm3A01.pdb
 222 212 0 0 0
SMALL
GASTEIGER

@<TRIPOS>ATOM
      1  N        -37.5510   33.2720    2.5260 N.3    17  PHE17      -0.1227
      2  CA       -37.6340   31.9050    3.0060 C.3    17  PHE17       0.1736
      3  C        -38.2320   31.7950    4.4090 C.2    17  PHE17       0.2595
      4  O        -39.2280   31.0940    4.6050 O.2    17  PHE17      -0.2718
      5  CB       -36.2700   31.2100    2.8430 C.3    17  PHE17       0.0547
      6  CG       -36.1380   29.8270    3.4550 C.ar   17  PHE17      -0.0202
      7  CD1      -35.6960   29.6650    4.7810 C.ar   17  PHE17      -0.0042
      8  CD2      -36.4010   28.6900    2.6680 C.ar   17  PHE17      -0.0042
      9  CE1      -35.5390   28.3740    5.3140 C.ar   17  PHE17      -0.0003
     10  CE2      -36.2390   27.4000    3.2020 C.ar   17  PHE17      -0.0003
     11  CZ       -35.8110   27.2430    4.5290 C.ar   17  PHE17      -0.0000
     12  N        -37.8000   32.6510    5.3430 N.am   18  MET18      -0.1979
     13  CA       -38.2530   32.4480    6.7130 C.3    18  MET18       0.1605
     14  C        -39.6860   32.9600    6.9980 C.2    18  MET18       0.2287
     15  O        -40.4680   32.3560    7.7460 O.2    18  MET18      -0.2864
     16  CB       -37.3250   33.0040    7.7880 C.3    18  MET18       0.0413
     17  CG       -36.0040   32.2110    7.9370 C.3    18  MET18       0.0598
     18  SD       -36.3530   30.4800    8.5310 S.3    18  MET18      -0.1393
     19  CE       -34.6160   30.0410    8.5530 C.3    18  MET18       0.0692
     20  N        -42.2520   30.4880    5.6570 N.3    21  LEU21      -0.1231
     21  CA       -42.3840   29.3450    6.5980 C.3    21  LEU21       0.1693
     22  C        -43.2120   29.7030    7.8450 C.2    21  LEU21       0.2593
     23  O        -43.9550   28.8950    8.3770 O.2    21  LEU21      -0.2718
     24  CB       -40.9570   28.8870    7.0160 C.3    21  LEU21       0.0284
     25  CG       -40.4940   27.9080    5.9440 C.3    21  LEU21       0.0019
     26  CD1      -39.0420   27.7860    5.8380 C.3    21  LEU21       0.0001
     27  CD2      -41.3100   26.5390    6.0090 C.3    21  LEU21       0.0001
     28  N        -43.1730   31.0030    8.2200 N.am   22  GLY22      -0.1942
     29  CA       -44.0570   31.5820    9.2320 C.3    22  GLY22       0.2014
     30  C        -43.2590   32.2310   10.3210 C.2    22  GLY22       0.2638
     31  O        -43.7480   32.2190   11.4260 O.2    22  GLY22      -0.2714
     32  N        -42.1320   32.8830   10.0290 N.am   23  ILE23      -0.1977
     33  CA       -41.4730   33.8100   10.9540 C.3    23  ILE23       0.1596
     34  C        -41.8580   35.2470   10.5730 C.2    23  ILE23       0.2287
     35  O        -41.5620   35.7000    9.4730 O.2    23  ILE23      -0.2864
     36  CB       -39.9410   33.5880   10.9740 C.3    23  ILE23       0.0276
     37  CG1      -39.6140   32.0750   11.0380 C.3    23  ILE23       0.0022
     38  CG2      -39.3430   34.3730   12.1570 C.3    23  ILE23       0.0022
     39  CD1      -38.2100   31.6750   11.4960 C.3    23  ILE23       0.0001
     40  N        -36.9520   35.5600   14.2980 N.3    27  VAL27      -0.1245
     41  CA       -35.6650   34.8730   14.1080 C.3    27  VAL27       0.1561
     42  C        -34.8260   35.5240   12.9960 C.2    27  VAL27       0.2260
     43  O        -33.6220   35.6180   13.1120 O.2    27  VAL27      -0.2867
     44  CB       -35.7800   33.3850   13.8840 C.3    27  VAL27       0.0252
     45  CG1      -34.4200   32.7370   13.4590 C.3    27  VAL27       0.0019
     46  CG2      -36.4520   32.7230   15.1000 C.3    27  VAL27       0.0019
     47  N        -32.7270   12.5390   18.4530 N.3    47  PHE47      -0.1241
     48  CA       -32.1080   13.7330   18.0030 C.3    47  PHE47       0.1605
     49  C        -32.5740   14.9470   18.8510 C.2    47  PHE47       0.2264
     50  O        -33.7220   14.8860   19.2530 O.2    47  PHE47      -0.2867
     51  CB       -32.5650   13.9340   16.5660 C.3    47  PHE47       0.0534
     52  CG       -32.1250   15.2320   15.9320 C.ar   47  PHE47      -0.0203
     53  CD1      -30.8250   15.3580   15.4260 C.ar   47  PHE47      -0.0042
     54  CD2      -33.0130   16.3100   15.8520 C.ar   47  PHE47      -0.0042
     55  CE1      -30.4150   16.5610   14.8380 C.ar   47  PHE47      -0.0003
     56  CE2      -32.6050   17.5130   15.2670 C.ar   47  PHE47      -0.0003
     57  CZ       -31.3050   17.6390   14.7580 C.ar   47  PHE47      -0.0000
     58  N        -31.5710   19.3070   18.4810 N.3    49  TRP49      -0.1241
     59  CA       -30.7580   20.5200   18.3540 C.3    49  TRP49       0.1605
     60  C        -31.2970   21.5920   19.2830 C.2    49  TRP49       0.2264
     61  O        -32.4990   21.6830   19.5550 O.2    49  TRP49      -0.2867
     62  CB       -30.5440   20.9610   16.8940 C.3    49  TRP49       0.0550
     63  CG       -31.5480   21.7480   16.0960 C.ar   49  TRP49       0.0003
     64  CD1      -32.2820   22.8120   16.5090 C.ar   49  TRP49       0.0946
     65  CD2      -31.6710   21.7560   14.6400 C.ar   49  TRP49       0.0152
     66  NE1      -32.8750   23.4260   15.4240 N.ar   49  TRP49      -0.2442
     67  CE2      -32.4580   22.8720   14.2360 C.ar   49  TRP49       0.0810
     68  CE3      -31.1140   20.9740   13.6110 C.ar   49  TRP49       0.0012
     69  CZ2      -32.6580   23.2110   12.8890 C.ar   49  TRP49       0.0191
     70  CZ3      -31.2940   21.3060   12.2530 C.ar   49  TRP49       0.0001
     71  CH2      -32.0660   22.4220   11.8860 C.ar   49  TRP49       0.0015
     72  N        -35.4330   21.6230   19.2710 N.3    61  ASN61      -0.1240
     73  CA       -36.3770   20.6140   18.9420 C.3    61  ASN61       0.1653
     74  C        -35.7160   19.2690   19.3120 C.2    61  ASN61       0.2266
     75  O        -34.5470   19.0890   19.1970 O.2    61  ASN61      -0.2867
     76  CB       -36.6960   20.6800   17.4410 C.3    61  ASN61       0.1155
     77  CG       -35.4940   21.0520   16.5620 C.2    61  ASN61       0.2627
     78  OD1      -34.5190   20.3250   16.2480 O.2    61  ASN61      -0.2716
     79  ND2      -35.5000   22.3020   16.2130 N.am   61  ASN61      -0.0877
     80  N        -36.5760   15.1660   18.4120 N.3    63  PHE63      -0.1241
     81  CA       -37.3870   14.1220   17.7860 C.3    63  PHE63       0.1605
     82  C        -36.5750   12.8350   17.5750 C.2    63  PHE63       0.2264
     83  O        -35.4050   12.7900   17.8510 O.2    63  PHE63      -0.2867
     84  CB       -38.0320   14.6170   16.5240 C.3    63  PHE63       0.0534
     85  CG       -37.0570   14.9960   15.4350 C.ar   63  PHE63      -0.0203
     86  CD1      -36.2830   16.1550   15.5610 C.ar   63  PHE63      -0.0042
     87  CD2      -36.9290   14.1870   14.2990 C.ar   63  PHE63      -0.0042
     88  CE1      -35.3790   16.5070   14.5520 C.ar   63  PHE63      -0.0003
     89  CE2      -36.0240   14.5400   13.2890 C.ar   63  PHE63      -0.0003
     90  CZ       -35.2500   15.6990   13.4150 C.ar   63  PHE63      -0.0000
     91  N        -41.6440   17.0930   16.3120 N.3    71  ILE71      -0.1231
     92  CA       -40.6780   17.9030   15.5560 C.3    71  ILE71       0.1692
     93  C        -41.1450   19.3610   15.5150 C.2    71  ILE71       0.2592
     94  O        -42.3140   19.5740   15.2200 O.2    71  ILE71      -0.2718
     95  CB       -40.5670   17.3280   14.1250 C.3    71  ILE71       0.0266
     96  CG1      -40.6690   15.7840   14.0070 C.3    71  ILE71       0.0019
     97  CG2      -39.2390   17.7610   13.5220 C.3    71  ILE71       0.0020
     98  CD1      -42.0770   15.3090   13.6410 C.3    71  ILE71       0.0001
     99  N        -40.3000   20.3680   15.7650 N.am   72  GLN72      -0.1966
    100  CA       -40.7740   21.7310   15.8850 C.3    72  GLN72       0.1733
    101  C        -39.7300   22.7190   15.3260 C.2    72  GLN72       0.2617
    102  O        -38.5890   22.3050   14.9810 O.2    72  GLN72      -0.2715
    103  CB       -41.0460   22.1410   17.3640 C.3    72  GLN72       0.0408
    104  CG       -39.8770   22.2650   18.2710 C.3    72  GLN72       0.0908
    105  CD       -40.4380   22.4930   19.6760 C.2    72  GLN72       0.2608
    106  OE1      -41.6630   22.4380   19.8460 O.2    72  GLN72      -0.2717
    107  NE2      -39.5670   22.7060   20.7310 N.am   72  GLN72      -0.0878
    108  N        -40.2190   23.9290   15.0080 N.am   73  THR73      -0.1937
    109  CA       -39.5730   24.9400   14.1400 C.3    73  THR73       0.2028
    110  C        -38.4280   25.7700   14.7720 C.2    73  THR73       0.2642
    111  O        -38.1830   25.6010   15.9660 O.2    73  THR73      -0.2714
    112  CB       -40.6050   25.8530   13.4600 C.3    73  THR73       0.1808
    113  OG1      -41.1760   26.7340   14.4000 O.3    73  THR73      -0.2208
    114  CG2      -41.7040   25.0890   12.7210 C.3    73  THR73       0.0379
    115  N        -37.8100   26.7570   14.0660 N.am   74  MET74      -0.1962
    116  CA       -37.0570   27.7830   14.6530 C.3    74  MET74       0.1736
    117  C        -37.8030   28.6040   15.6940 C.2    74  MET74       0.2617
    118  O        -37.3390   29.0190   16.7630 O.2    74  MET74      -0.2715
    119  CB       -36.5110   28.8010   13.6040 C.3    74  MET74       0.0427
    120  CG       -35.7010   28.1990   12.3730 C.3    74  MET74       0.0599
    121  SD       -34.3230   27.2170   12.9380 S.3    74  MET74      -0.1393
    122  CE       -33.6630   26.8600   11.3300 C.3    74  MET74       0.0692
    123  N        -39.1050   28.8140   15.4530 N.am   75  GLY75      -0.1955
    124  CA       -39.9910   29.3610   16.4610 C.3    75  GLY75       0.1869
    125  C        -40.5540   28.4600   17.4870 C.2    75  GLY75       0.2309
    126  O        -41.2140   28.8770   18.4400 O.2    75  GLY75      -0.2863
    127  N        -42.7280   25.8200   16.7830 N.3    77  LYS77      -0.1245
    128  CA       -44.1180   25.4050   16.5090 C.3    77  LYS77       0.1561
    129  C        -44.1280   23.8690   16.1570 C.2    77  LYS77       0.2260
    130  O        -43.3290   23.4780   15.2960 O.2    77  LYS77      -0.2867
    131  CB       -44.7670   26.1710   15.3260 C.3    77  LYS77       0.0271
    132  CG       -46.1050   25.6600   14.9250 C.3    77  LYS77       0.0035
    133  CD       -46.6210   26.2670   13.6210 C.3    77  LYS77       0.0206
    134  CE       -48.0440   25.8830   13.2290 C.3    77  LYS77       0.1093
    135  NZ       -48.3570   26.5290   11.9440 N.3    77  LYS77      -0.1314
    136  N        -44.8840   20.2230   14.4720 N.3    79  PHE79      -0.1241
    137  CA       -45.5160   19.5920   13.3080 C.3    79  PHE79       0.1605
    138  C        -45.5030   18.0600   13.2920 C.2    79  PHE79       0.2264
    139  O        -44.8630   17.4050   14.1180 O.2    79  PHE79      -0.2867
    140  CB       -45.0200   20.2280   11.9980 C.3    79  PHE79       0.0534
    141  CG       -43.5180   20.2330   11.8210 C.ar   79  PHE79      -0.0203
    142  CD1      -42.7300   21.2570   12.3820 C.ar   79  PHE79      -0.0042
    143  CD2      -42.9110   19.1990   11.0840 C.ar   79  PHE79      -0.0042
    144  CE1      -41.3390   21.2390   12.2130 C.ar   79  PHE79      -0.0003
    145  CE2      -41.5190   19.1870   10.9050 C.ar   79  PHE79      -0.0003
    146  CZ       -40.7380   20.2070   11.4710 C.ar   79  PHE79      -0.0000
    147  N        -39.3230   12.4350    9.7040 N.3    83  VAL83      -0.1245
    148  CA       -37.9690   12.7970    9.3410 C.3    83  VAL83       0.1561
    149  C        -37.1770   11.5750    8.9190 C.2    83  VAL83       0.2260
    150  O        -37.2720   10.5440    9.5720 O.2    83  VAL83      -0.2867
    151  CB       -37.2960   13.5770   10.4350 C.3    83  VAL83       0.0252
    152  CG1      -36.0940   14.3310    9.8480 C.3    83  VAL83       0.0019
    153  CG2      -38.2990   14.4900   11.1700 C.3    83  VAL83       0.0019
    154  N        -30.5400   14.5240    7.2770 N.3    90  LEU90      -0.1231
    155  CA       -31.9480   14.4710    7.7170 C.3    90  LEU90       0.1693
    156  C        -32.8620   15.3050    6.8080 C.2    90  LEU90       0.2592
    157  O        -32.4900   16.4080    6.4110 O.2    90  LEU90      -0.2718
    158  CB       -32.0920   14.8380    9.2020 C.3    90  LEU90       0.0284
    159  CG       -31.8800   13.6430   10.1520 C.3    90  LEU90       0.0019
    160  CD1      -30.4140   13.2580   10.3230 C.3    90  LEU90       0.0001
    161  CD2      -32.4360   13.9560   11.5410 C.3    90  LEU90       0.0001
    162  N        -34.0710   14.8020    6.5140 N.am   91  VAL91      -0.1966
    163  CA       -34.9810   15.4360    5.5500 C.3    91  VAL91       0.1727
    164  C        -36.4090   15.3230    6.0740 C.2    91  VAL91       0.2616
    165  O        -36.8060   14.2550    6.5450 O.2    91  VAL91      -0.2715
    166  CB       -34.8060   14.8330    4.1200 C.3    91  VAL91       0.0290
    167  CG1      -33.9660   13.5490    4.0090 C.3    91  VAL91       0.0023
    168  CG2      -36.0990   14.6480    3.3120 C.3    91  VAL91       0.0023
    169  N        -37.2450   16.3300    5.8420 N.am   92  VAL92      -0.1977
    170  CA       -38.7070   16.1520    5.8880 C.3    92  VAL92       0.1596
    171  C        -39.2580   16.4800    4.5120 C.2    92  VAL92       0.2287
    172  O        -38.6610   17.2460    3.7570 O.2    92  VAL92      -0.2864
    173  CB       -39.3850   17.0290    6.9550 C.3    92  VAL92       0.0276
    174  CG1      -39.2090   16.3630    8.3200 C.3    92  VAL92       0.0022
    175  CG2      -38.8880   18.4780    6.9820 C.3    92  VAL92       0.0022
    176  N        -43.3220   22.0080    1.9110 N.3    97  TYR97      -0.1241
    177  CA       -41.9250   22.0510    2.3680 C.3    97  TYR97       0.1605
    178  C        -41.1100   20.7910    2.0610 C.2    97  TYR97       0.2264
    179  O        -41.6120   19.6780    1.9680 O.2    97  TYR97      -0.2867
    180  CB       -41.8950   22.4200    3.8620 C.3    97  TYR97       0.0534
    181  CG       -40.5130   22.7690    4.3640 C.ar   97  TYR97      -0.0201
    182  CD1      -39.8650   23.8610    3.7680 C.ar   97  TYR97      -0.0009
    183  CD2      -39.8770   22.0530    5.3930 C.ar   97  TYR97      -0.0009
    184  CE1      -38.6100   24.2820    4.2230 C.ar   97  TYR97       0.0417
    185  CE2      -38.6060   22.4660    5.8450 C.ar   97  TYR97       0.0417
    186  CZ       -37.9790   23.6050    5.2760 C.ar   97  TYR97       0.1957
    187  OH       -36.8110   24.1310    5.7320 O.3    97  TYR97      -0.2866
    188  N        -36.6040   19.6830    2.9980 N.3    99  GLN99      -0.1245
    189  CA       -35.2110   20.1630    3.1060 C.3    99  GLN99       0.1566
    190  C        -34.2560   19.0080    3.2990 C.2    99  GLN99       0.2260
    191  O        -34.7050   17.8990    3.4770 O.2    99  GLN99      -0.2867
    192  CB       -35.0250   21.2600    4.2040 C.3    99  GLN99       0.0367
    193  CG       -35.1360   20.7260    5.6350 C.3    99  GLN99       0.0905
    194  CD       -34.3620   21.6760    6.5270 C.2    99  GLN99       0.2608
    195  OE1      -34.7470   22.8380    6.6550 O.2    99  GLN99      -0.2717
    196  NE2      -33.3000   21.1880    7.2010 N.am   99  GLN99      -0.0878
    197  N        -30.0780   18.1690    5.2670 N.3   101  SER101     -0.1217
    198  CA       -29.2240   18.6220    6.3560 C.3   101  SER101      0.1889
    199  C        -28.0610   17.6170    6.4710 C.2   101  SER101      0.2288
    200  O        -28.2580   16.3900    6.6590 O.2   101  SER101     -0.2866
    201  CB       -30.0610   18.7260    7.6580 C.3   101  SER101      0.2089
    202  OG       -30.3570   20.0680    8.0730 O.3   101  SER101     -0.2183
    203  N        -26.5730   22.9700    4.7280 N.3   110  GLU110     -0.1245
    204  CA       -28.0080   22.6840    4.7000 C.3   110  GLU110      0.1567
    205  C        -28.6580   23.2950    3.4840 C.2   110  GLU110      0.2260
    206  O        -28.4100   24.4590    3.1780 O.2   110  GLU110     -0.2867
    207  CB       -28.6120   23.1650    6.0120 C.3   110  GLU110      0.0388
    208  CG       -30.1280   22.9930    6.2040 C.3   110  GLU110      0.1160
    209  CD       -30.5610   23.3840    7.6280 C.2   110  GLU110      0.3649
    210  OE1      -29.7120   23.8860    8.4000 O.co2 110  GLU110     -0.2457
    211  OE2      -31.7760   23.4190    7.9190 O.co2 110  GLU110     -0.2457
    212  N        -27.4130   27.1000    3.4330 N.3   121  ARG121     -0.1245
    213  CA       -26.8580   27.5690    4.6610 C.3   121  ARG121      0.1563
    214  C        -25.6130   26.8530    4.9080 C.2   121  ARG121      0.2260
    215  O        -25.4200   25.7150    4.4770 O.2   121  ARG121     -0.2867
    216  CB       -27.9620   27.2600    5.7100 C.3   121  ARG121      0.0307
    217  CG       -27.6310   27.5680    7.1130 C.3   121  ARG121      0.0489
    218  CD       -28.6260   27.0220    8.1110 C.3   121  ARG121      0.2205
    219  NE       -29.9180   27.7540    8.0630 N.pl3 121  ARG121     -0.0865
    220  CZ       -31.0410   27.2170    8.5720 C.cat 121  ARG121      0.5346
    221  NH1      -31.0720   26.0620    9.1720 N.pl3 121  ARG121      0.1354
    222  NH2      -32.1970   27.9140    8.4880 N.pl3 121  ARG121      0.1354
@<TRIPOS>BOND
     1   176   177    1
     2   179   178    2
     3   178   177    1
     4   177   180    1
     5     1     2    1
     6     8    10   ar
     7     8     6   ar
     8     5     2    1
     9     5     6    1
    10   188   189    1
    11     2     3    1
    12   189   190    1
    13   189   192    1
    14   206   205    2
    15    10    11   ar
    16   190   191    2
    17   168   166    1
    18   212   213    1
    19     6     7   ar
    20   205   204    1
    21   172   171    2
    22   182   184   ar
    23   182   181   ar
    24   180   181    1
    25   167   166    1
    26   166   163    1
    27   192   193    1
    28   184   186   ar
    29   181   183   ar
    30     3     4    2
    31     3    12   am
    32   215   214    2
    33   171   170    1
    34    11     9   ar
    35   213   214    1
    36   213   216    1
    37   204   203    1
    38   204   207    1
    39     7     9   ar
    40   197   198    1
    41   186   187    1
    42   186   185   ar
    43    12    13    1
    44   183   185   ar
    45   163   164    1
    46   163   162    1
    47   193   194    1
    48    20    21    1
    49   216   217    1
    50    26    25    1
    51   169   170    1
    52   169   164   am
    53   170   173    1
    54    25    27    1
    55    25    24    1
    56   207   208    1
    57   164   165    2
    58   208   209    1
    59   198   199    1
    60   198   201    1
    61   157   156    2
    62   199   200    2
    63   162   156   am
    64   194   195    2
    65   194   196   am
    66    21    24    1
    67    21    22    1
    68    13    14    1
    69    13    16    1
    70   156   155    1
    71   173   175    1
    72   173   174    1
    73    14    15    2
    74   217   218    1
    75   154   155    1
    76   209   211   ar
    77   209   210   ar
    78   201   202    1
    79   155   158    1
    80    16    17    1
    81    22    28   am
    82    22    23    2
    83    17    18    1
    84   219   218    1
    85   219   220    2
    86    28    29    1
    87   222   220    1
    88    18    19    1
    89   220   221    1
    90   149   148    1
    91   149   150    2
    92   158   159    1
    93    29    30    1
    94   148   147    1
    95   148   151    1
    96    35    34    2
    97   152   151    1
    98    32    30   am
    99    32    33    1
   100   159   160    1
   101   159   161    1
   102    30    31    2
   103   151   153    1
   104    34    33    1
   105   145   143   ar
   106   145   146   ar
   107    33    36    1
   108    36    37    1
   109    36    38    1
   110    37    39    1
   111   143   141   ar
   112   122   121    1
   113   146   144   ar
   114   141   140    1
   115   141   142   ar
   116    71    70   ar
   117    71    69   ar
   118   135   134    1
   119   140   137    1
   120   144   142   ar
   121    70    68   ar
   122   120   121    1
   123   120   119    1
   124   114   112    1
   125    69    67   ar
   126    42    43    2
   127    42    41    1
   128   134   133    1
   129    89    90   ar
   130    89    87   ar
   131   138   137    1
   132   138   139    2
   133   137   136    1
   134    90    88   ar
   135    45    44    1
   136   112   109    1
   137   112   113    1
   138    97    95    1
   139   119   116    1
   140    68    65   ar
   141   133   132    1
   142    98    96    1
   143    44    41    1
   144    44    46    1
   145    96    95    1
   146   115   116    1
   147   115   110   am
   148    41    40    1
   149    95    92    1
   150   109   110    1
   151   109   108    1
   152    67    65   ar
   153    67    66   ar
   154    87    85   ar
   155    88    86   ar
   156    65    63   ar
   157   116   117    1
   158    57    55   ar
   159    57    56   ar
   160   110   111    2
   161    55    53   ar
   162   132   131    1
   163   102   101    2
   164   108   101   am
   165    94    93    2
   166    56    54   ar
   167   130   129    2
   168   101   100    1
   169   131   128    1
   170    66    64   ar
   171    53    52   ar
   172    85    86   ar
   173    85    84    1
   174   123   117   am
   175   123   124    1
   176    93    92    1
   177    93    99   am
   178    92    91    1
   179   117   118    2
   180    99   100    1
   181    54    52   ar
   182   100   103    1
   183    52    51    1
   184    63    64   ar
   185    63    62    1
   186   129   128    1
   187    79    77   am
   188    78    77    2
   189   124   125    1
   190   128   127    1
   191    84    81    1
   192    77    76    1
   193    51    48    1
   194    62    59    1
   195   103   104    1
   196    76    73    1
   197   125   126    2
   198    82    81    1
   199    82    83    2
   200    81    80    1
   201    48    47    1
   202    48    49    1
   203   104   105    1
   204    59    58    1
   205    59    60    1
   206    49    50    2
   207    73    72    1
   208    73    74    1
   209    75    74    2
   210    60    61    2
   211   105   106    2
   212   105   107   am
