@<TRIPOS>MOLECULE
tmp/2mnzA00.pdb
 170 169 0 0 0
SMALL
GASTEIGER

@<TRIPOS>ATOM
      1  N          8.9590   -9.5220    0.6950 N.3     2  VAL2       -0.1231
      2  CA         7.8410   -8.6180    1.0750 C.3     2  VAL2        0.1692
      3  C          8.1700   -7.1820    0.6520 C.2     2  VAL2        0.2592
      4  O          7.3100   -6.4430    0.2150 O.2     2  VAL2       -0.2718
      5  CB         7.6460   -8.6800    2.5900 C.3     2  VAL2        0.0266
      6  CG1        7.1980  -10.0870    2.9890 C.3     2  VAL2        0.0020
      7  CG2        8.9690   -8.3540    3.2900 C.3     2  VAL2        0.0020
      8  N          9.4070   -6.7830    0.7700 N.am    3  ASP3       -0.1960
      9  CA         9.7880   -5.3980    0.3660 C.3     3  ASP3        0.1840
     10  C          9.5090   -5.2090   -1.1270 C.2     3  ASP3        0.2622
     11  O          9.1820   -4.1310   -1.5780 O.2     3  ASP3       -0.2715
     12  CB        11.2760   -5.1770    0.6430 C.3     3  ASP3        0.1450
     13  CG        11.5220   -5.1950    2.1540 C.2     3  ASP3        0.3671
     14  OD1       10.5530   -5.1430    2.8920 O.co2   3  ASP3       -0.2456
     15  OD2       12.6750   -5.2630    2.5450 O.co2   3  ASP3       -0.2456
     16  N          9.6440   -6.2560   -1.8910 N.am    4  LEU4       -0.1963
     17  CA         9.3980   -6.1610   -3.3550 C.3     4  LEU4        0.1728
     18  C          8.0250   -5.5500   -3.6260 C.2     4  LEU4        0.2616
     19  O          7.8040   -4.9380   -4.6510 O.2     4  LEU4       -0.2715
     20  CB         9.4590   -7.5630   -3.9660 C.3     4  LEU4        0.0311
     21  CG         9.1870   -7.4800   -5.4680 C.3     4  LEU4        0.0022
     22  CD1       10.2820   -6.6480   -6.1350 C.3     4  LEU4        0.0001
     23  CD2        9.1930   -8.8920   -6.0580 C.3     4  LEU4        0.0001
     24  N          7.0930   -5.7270   -2.7380 N.am    5  TYR5       -0.1960
     25  CA         5.7370   -5.1700   -2.9850 C.3     5  TYR5        0.1771
     26  C          5.8230   -3.6530   -3.1620 C.2     5  TYR5        0.2619
     27  O          6.2700   -2.9370   -2.2880 O.2     5  TYR5       -0.2715
     28  CB         4.8480   -5.4810   -1.7870 C.3     5  TYR5        0.0574
     29  CG         4.1200   -6.7810   -2.0050 C.ar    5  TYR5       -0.0198
     30  CD1        4.8360   -7.9780   -2.1150 C.ar    5  TYR5       -0.0009
     31  CD2        2.7240   -6.7870   -2.0900 C.ar    5  TYR5       -0.0009
     32  CE1        4.1540   -9.1840   -2.3080 C.ar    5  TYR5        0.0417
     33  CE2        2.0420   -7.9930   -2.2850 C.ar    5  TYR5        0.0417
     34  CZ         2.7550   -9.1920   -2.3940 C.ar    5  TYR5        0.1957
     35  OH         2.0830  -10.3820   -2.5860 O.3     5  TYR5       -0.2866
     36  N          5.3860   -3.1650   -4.2930 N.am    6  VAL6       -0.1977
     37  CA         5.4240   -1.7010   -4.5530 C.3     6  VAL6        0.1596
     38  C          4.0270   -1.2150   -4.9510 C.2     6  VAL6        0.2287
     39  O          3.2090   -1.9780   -5.4210 O.2     6  VAL6       -0.2864
     40  CB         6.4130   -1.4120   -5.6840 C.3     6  VAL6        0.0276
     41  CG1        7.8310   -1.7430   -5.2160 C.3     6  VAL6        0.0022
     42  CG2        6.0650   -2.2830   -6.8930 C.3     6  VAL6        0.0022
     43  N          4.6930    1.7880   -8.5300 N.3    11  GLY11      -0.1210
     44  CA         5.7150    0.7230   -8.6940 C.3    11  GLY11       0.1956
     45  C          7.0200    1.1790   -8.0370 C.2    11  GLY11       0.2613
     46  O          8.0300    0.5090   -8.1060 O.2    11  GLY11      -0.2717
     47  N          7.0020    2.3180   -7.3920 N.am   12  SER12      -0.1938
     48  CA         8.2390    2.8160   -6.7220 C.3    12  SER12       0.2055
     49  C          8.3360    2.2010   -5.3250 C.2    12  SER12       0.2644
     50  O          9.4110    1.9460   -4.8240 O.2    12  SER12      -0.2714
     51  CB         8.1790    4.3400   -6.6080 C.3    12  SER12       0.2130
     52  OG         8.0020    4.9010   -7.9020 O.3    12  SER12      -0.2179
     53  N          7.2170    1.9460   -4.7050 N.am   13  GLY13      -0.1939
     54  CA         7.2230    1.3300   -3.3460 C.3    13  GLY13       0.2014
     55  C          8.2940    1.9670   -2.4570 C.2    13  GLY13       0.2639
     56  O          8.6860    1.4030   -1.4550 O.2    13  GLY13      -0.2714
     57  N          8.7790    3.1260   -2.8020 N.am   14  ASN14      -0.1958
     58  CA         9.8230    3.7560   -1.9580 C.3    14  ASN14       0.1819
     59  C          9.1790    4.5840   -0.8480 C.2    14  ASN14       0.2621
     60  O          9.7840    4.8220    0.1780 O.2    14  ASN14      -0.2715
     61  CB        10.6870    4.6610   -2.8320 C.3    14  ASN14       0.1195
     62  CG        10.0000    6.0180   -2.9960 C.2    14  ASN14       0.2630
     63  OD1       10.2550    6.9360   -2.2400 O.2    14  ASN14      -0.2716
     64  ND2        9.1330    6.1850   -3.9550 N.am   14  ASN14      -0.0877
     65  N          7.9620    5.0170   -1.0330 N.am   15  ASP15      -0.1957
     66  CA         7.2950    5.8290    0.0290 C.3    15  ASP15       0.1840
     67  C          6.9440    4.9220    1.2080 C.2    15  ASP15       0.2622
     68  O          5.8290    4.4570    1.3430 O.2    15  ASP15      -0.2715
     69  CB         6.0220    6.4620   -0.5290 C.3    15  ASP15       0.1450
     70  CG         6.3850    7.4450   -1.6430 C.2    15  ASP15       0.3671
     71  OD1        7.5490    7.7980   -1.7390 O.co2  15  ASP15      -0.2456
     72  OD2        5.4940    7.8270   -2.3830 O.co2  15  ASP15      -0.2456
     73  N          7.8990    4.6610    2.0540 N.am   16  GLU16      -0.1963
     74  CA         7.6560    3.7780    3.2270 C.3    16  GLU16       0.1733
     75  C          6.4640    4.2720    4.0550 C.2    16  GLU16       0.2616
     76  O          5.7030    3.4920    4.5920 O.2    16  GLU16      -0.2715
     77  CB         8.9130    3.7740    4.1030 C.3    16  GLU16       0.0429
     78  CG         9.0950    5.1470    4.7490 C.3    16  GLU16       0.1163
     79  CD        10.4320    5.1870    5.4920 C.2    16  GLU16       0.3649
     80  OE1       11.0810    4.1560    5.5580 O.co2  16  GLU16      -0.2457
     81  OE2       10.7810    6.2470    5.9840 O.co2  16  GLU16      -0.2457
     82  N          6.3150    5.5560    4.1960 N.am   17  ASP17      -0.1971
     83  CA         5.1990    6.0910    5.0280 C.3    17  ASP17       0.1709
     84  C          3.8480    6.0400    4.3010 C.2    17  ASP17       0.2293
     85  O          2.8130    6.0310    4.9380 O.2    17  ASP17      -0.2864
     86  CB         5.5050    7.5440    5.4010 C.3    17  ASP17       0.1436
     87  CG         6.7240    7.5900    6.3240 C.2    17  ASP17       0.3671
     88  OD1        7.0410    6.5660    6.9060 O.co2  17  ASP17      -0.2456
     89  OD2        7.3170    8.6510    6.4380 O.co2  17  ASP17      -0.2456
     90  N          3.1300    3.8250    1.4980 N.3    19  LEU19      -0.1231
     91  CA         2.8060    2.5280    0.8530 C.3    19  LEU19       0.1693
     92  C          2.0230    1.6420    1.8250 C.2    19  LEU19       0.2592
     93  O          2.5520    1.1890    2.8230 O.2    19  LEU19      -0.2718
     94  CB         4.1110    1.8360    0.4810 C.3    19  LEU19       0.0284
     95  CG         3.8720    0.8010   -0.6150 C.3    19  LEU19       0.0019
     96  CD1        2.7830   -0.1840   -0.1890 C.3    19  LEU19       0.0001
     97  CD2        3.4410    1.5010   -1.9020 C.3    19  LEU19       0.0001
     98  N          0.7740    1.3680    1.5290 N.am   20  LEU20      -0.1966
     99  CA        -0.0260    0.4860    2.4260 C.3    20  LEU20       0.1728
    100  C         -0.2880   -0.8320    1.6950 C.2    20  LEU20       0.2616
    101  O         -0.6990   -0.8440    0.5510 O.2    20  LEU20      -0.2715
    102  CB        -1.3720    1.1300    2.7990 C.3    20  LEU20       0.0311
    103  CG        -1.5600    2.4690    2.0880 C.3    20  LEU20       0.0022
    104  CD1       -2.0670    2.2060    0.6770 C.3    20  LEU20       0.0001
    105  CD2       -2.5950    3.2970    2.8430 C.3    20  LEU20       0.0001
    106  N         -0.0520   -1.9420    2.3350 N.am   21  LEU21      -0.1977
    107  CA        -0.2870   -3.2490    1.6610 C.3    21  LEU21       0.1596
    108  C         -1.6720   -3.7800    2.0320 C.2    21  LEU21       0.2287
    109  O         -2.0060   -3.9160    3.1950 O.2    21  LEU21      -0.2864
    110  CB         0.7930   -4.2400    2.0990 C.3    21  LEU21       0.0297
    111  CG         0.4150   -5.6590    1.6680 C.3    21  LEU21       0.0022
    112  CD1        1.6470   -6.3630    1.0930 C.3    21  LEU21       0.0001
    113  CD2       -0.0890   -6.4360    2.8870 C.3    21  LEU21       0.0001
    114  N         -4.2010   -6.5740    2.6320 N.3    23  ASP23      -0.1239
    115  CA        -4.1460   -8.0300    2.9300 C.3    23  ASP23       0.1674
    116  C         -5.3060   -8.7510    2.2460 C.2    23  ASP23       0.2266
    117  O         -5.1860   -9.8870    1.8330 O.2    23  ASP23      -0.2867
    118  CB        -4.2400   -8.2340    4.4410 C.3    23  ASP23       0.1410
    119  CG        -2.9960   -7.6550    5.1170 C.2    23  ASP23       0.3668
    120  OD1       -2.0160   -7.4370    4.4240 O.co2  23  ASP23      -0.2456
    121  OD2       -3.0430   -7.4390    6.3170 O.co2  23  ASP23      -0.2456
    122  N         -1.0830    5.6600    7.2930 N.3    41  VAL41      -0.1231
    123  CA        -1.1750    4.2190    6.9300 C.3    41  VAL41       0.1678
    124  C         -1.7950    3.4320    8.1010 C.2    41  VAL41       0.2434
    125  O         -1.2130    3.3560    9.1650 O.2    41  VAL41      -0.2733
    126  CB         0.2310    3.6840    6.6550 C.3    41  VAL41       0.0265
    127  CG1        0.6370    4.0200    5.2200 C.3    41  VAL41       0.0020
    128  CG2        1.2220    4.3300    7.6280 C.3    41  VAL41       0.0020
    129  N         -2.9580    2.8430    7.9190 N.am   42  PRO42      -0.2718
    130  CA        -3.6310    2.0540    8.9950 C.3    42  PRO42       0.1535
    131  C         -2.6660    1.0990    9.7120 C.2    42  PRO42       0.2598
    132  O         -1.6610    0.6900    9.1680 O.2    42  PRO42      -0.2715
    133  CB        -4.7090    1.2750    8.2470 C.3    42  PRO42       0.0310
    134  CG        -5.0440    2.1190    7.0640 C.3    42  PRO42       0.0237
    135  CD        -3.7670    2.8660    6.6850 C.3    42  PRO42       0.0939
    136  N         -2.9610    0.7650   10.9410 N.am   43  LYS43      -0.1964
    137  CA        -2.0640   -0.1320   11.7240 C.3    43  LYS43       0.1728
    138  C         -2.2490   -1.5990   11.3200 C.2    43  LYS43       0.2617
    139  O         -2.0350   -2.4930   12.1160 O.2    43  LYS43      -0.2715
    140  CB        -2.3840    0.0240   13.2090 C.3    43  LYS43       0.0311
    141  CG        -2.0700    1.4550   13.6530 C.3    43  LYS43       0.0038
    142  CD        -2.2820    1.5800   15.1620 C.3    43  LYS43       0.0206
    143  CE        -2.0840    3.0370   15.5880 C.3    43  LYS43       0.1093
    144  NZ        -3.2050    3.8660   15.0600 N.3    43  LYS43      -0.1314
    145  N         -2.6250   -1.8640   10.0990 N.am   44  GLY44      -0.1940
    146  CA        -2.7970   -3.2840    9.6680 C.3    44  GLY44       0.2014
    147  C         -4.2810   -3.6600    9.6340 C.2    44  GLY44       0.2639
    148  O         -4.6290   -4.7800    9.3260 O.2    44  GLY44      -0.2714
    149  N         -5.1560   -2.7380    9.9410 N.am   45  ASP45      -0.1957
    150  CA        -6.6130   -3.0580    9.9230 C.3    45  ASP45       0.1840
    151  C         -7.3070   -2.2320    8.8370 C.2    45  ASP45       0.2622
    152  O         -8.0570   -1.3200    9.1210 O.2    45  ASP45      -0.2715
    153  CB        -7.2250   -2.7210   11.2850 C.3    45  ASP45       0.1450
    154  CG        -8.6850   -3.1720   11.3140 C.2    45  ASP45       0.3671
    155  OD1       -9.1120   -3.7960   10.3560 O.co2  45  ASP45      -0.2456
    156  OD2       -9.3530   -2.8860   12.2940 O.co2  45  ASP45      -0.2456
    157  N         -7.0600   -2.5440    7.5950 N.am   46  TRP46      -0.1974
    158  CA        -7.7070   -1.7770    6.4940 C.3    46  TRP46       0.1640
    159  C         -7.7720   -2.6350    5.2300 C.2    46  TRP46       0.2290
    160  O         -7.1500   -3.6740    5.1330 O.2    46  TRP46      -0.2864
    161  CB        -6.9000   -0.5120    6.2220 C.3    46  TRP46       0.0576
    162  CG        -7.0110   -0.1180    4.7830 C.ar   46  TRP46       0.0006
    163  CD1       -7.9750    0.6770    4.2600 C.ar   46  TRP46       0.0946
    164  CD2       -6.1330   -0.4740    3.6780 C.ar   46  TRP46       0.0152
    165  NE1       -7.7390    0.8300    2.9030 N.ar   46  TRP46      -0.2442
    166  CE2       -6.6130    0.1390    2.4980 C.ar   46  TRP46       0.0810
    167  CE3       -4.9770   -1.2630    3.5890 C.ar   46  TRP46       0.0012
    168  CZ2       -5.9600   -0.0250    1.2740 C.ar   46  TRP46       0.0191
    169  CZ3       -4.3220   -1.4290    2.3610 C.ar   46  TRP46       0.0001
    170  CH2       -4.8110   -0.8100    1.2070 C.ar   46  TRP46       0.0015
@<TRIPOS>BOND
     1    44    43    1
     2    44    45    1
     3    46    45    2
     4    45    47   am
     5    52    51    1
     6    47    48    1
     7    42    40    1
     8    48    51    1
     9    48    49    1
    10    22    21    1
    11    23    21    1
    12    40    41    1
    13    40    37    1
    14    21    20    1
    15    39    38    2
    16    49    50    2
    17    49    53   am
    18    38    37    1
    19    53    54    1
    20    19    18    2
    21    37    36    1
    22    36    26   am
    23    20    17    1
    24    64    62   am
    25    18    17    1
    26    18    24   am
    27    17    16    1
    28    54    55    1
    29    26    25    1
    30    26    27    2
    31    62    61    1
    32    62    63    2
    33    25    24    1
    34    25    28    1
    35    61    58    1
    36    57    55   am
    37    57    58    1
    38    35    34    1
    39    55    56    2
    40    34    32   ar
    41    34    33   ar
    42    72    70   ar
    43    32    30   ar
    44    33    31   ar
    45    30    29   ar
    46    31    29   ar
    47    29    28    1
    48    58    59    1
    49    97    95    1
    50    16    10   am
    51    71    70   ar
    52    70    69    1
    53    11    10    2
    54    10     9    1
    55    65    59   am
    56    65    66    1
    57    59    60    2
    58    95    96    1
    59    95    94    1
    60    69    66    1
    61    66    67    1
    62     4     3    2
    63     9    12    1
    64     9     8    1
    65    94    91    1
    66   101   100    2
    67    12    13    1
    68     3     8   am
    69     3     2    1
    70   104   103    1
    71     1     2    1
    72    91    90    1
    73    91    92    1
    74     2     5    1
    75   112   111    1
    76   170   168   ar
    77   170   169   ar
    78    67    68    2
    79    67    73   am
    80   168   166   ar
    81    98    92   am
    82    98    99    1
    83   107   108    1
    84   107   110    1
    85   107   106    1
    86   111   110    1
    87   111   113    1
    88   100   106   am
    89   100    99    1
    90    92    93    2
    91   117   116    2
    92   108   109    2
    93    73    74    1
    94   103   102    1
    95   103   105    1
    96    13    15   ar
    97    13    14   ar
    98   116   115    1
    99   169   167   ar
   100    99   102    1
   101   166   165   ar
   102   166   164   ar
   103     5     6    1
   104     5     7    1
   105   114   115    1
   106   165   163   ar
   107   115   118    1
   108    74    75    1
   109    74    77    1
   110   167   164   ar
   111   164   162   ar
   112    75    82   am
   113    75    76    2
   114    77    78    1
   115    82    83    1
   116   163   162   ar
   117    84    85    2
   118    84    83    1
   119   120   119   ar
   120   118   119    1
   121    78    79    1
   122   162   161    1
   123    83    86    1
   124   119   121   ar
   125   160   159    2
   126   127   126    1
   127   159   158    1
   128    86    87    1
   129    79    80   ar
   130    79    81   ar
   131   161   158    1
   132    87    89   ar
   133    87    88   ar
   134   158   157    1
   135   126   123    1
   136   126   128    1
   137   135   134    1
   138   135   129    1
   139   123   122    1
   140   123   124    1
   141   134   133    1
   142   157   151   am
   143   129   124   am
   144   129   130    1
   145   124   125    2
   146   133   130    1
   147   151   152    2
   148   151   150    1
   149   130   131    1
   150   132   131    2
   151   148   147    2
   152   147   146    1
   153   147   149   am
   154   146   145    1
   155   131   136   am
   156   150   149    1
   157   150   153    1
   158   145   138   am
   159   155   154   ar
   160   136   137    1
   161   153   154    1
   162   154   156   ar
   163   138   137    1
   164   138   139    2
   165   137   140    1
   166   140   141    1
   167   141   142    1
   168   144   143    1
   169   142   143    1
