@<TRIPOS>MOLECULE
tmp/2mo5A00.pdb
 224 214 0 0 0
SMALL
GASTEIGER

@<TRIPOS>ATOM
      1  N         13.0170   -7.5460   -6.1090 N.3    25  TYR25      -0.1241
      2  CA        13.2600   -7.2320   -4.7010 C.3    25  TYR25       0.1605
      3  C         14.7220   -7.4290   -4.3430 C.2    25  TYR25       0.2264
      4  O         15.2880   -6.6750   -3.5470 O.2    25  TYR25      -0.2867
      5  CB        12.4110   -8.1300   -3.8010 C.3    25  TYR25       0.0534
      6  CG        12.5390   -7.8240   -2.3240 C.ar   25  TYR25      -0.0201
      7  CD1       12.1880   -6.5800   -1.8170 C.ar   25  TYR25      -0.0009
      8  CD2       13.0170   -8.7820   -1.4390 C.ar   25  TYR25      -0.0009
      9  CE1       12.3100   -6.2990   -0.4680 C.ar   25  TYR25       0.0417
     10  CE2       13.1410   -8.5110   -0.0900 C.ar   25  TYR25       0.0417
     11  CZ        12.7870   -7.2690    0.3910 C.ar   25  TYR25       0.1957
     12  OH        12.9140   -6.9950    1.7350 O.3    25  TYR25      -0.2866
     13  N         16.6980   -4.4210   -4.7840 N.3    28  PHE28      -0.1241
     14  CA        16.2770   -3.3920   -3.8360 C.3    28  PHE28       0.1605
     15  C         17.0030   -3.5460   -2.4980 C.2    28  PHE28       0.2264
     16  O         17.6210   -2.5970   -2.0120 O.2    28  PHE28      -0.2867
     17  CB        14.7560   -3.4370   -3.6280 C.3    28  PHE28       0.0534
     18  CG        14.2650   -2.5140   -2.5450 C.ar   28  PHE28      -0.0203
     19  CD1       14.3110   -2.9050   -1.2160 C.ar   28  PHE28      -0.0042
     20  CD2       13.7620   -1.2570   -2.8520 C.ar   28  PHE28      -0.0042
     21  CE1       13.8690   -2.0640   -0.2160 C.ar   28  PHE28      -0.0003
     22  CE2       13.3160   -0.4130   -1.8530 C.ar   28  PHE28      -0.0003
     23  CZ        13.3710   -0.8180   -0.5330 C.ar   28  PHE28      -0.0000
     24  N         22.1310   -4.4130    2.4740 N.3    34  VAL34      -0.1245
     25  CA        21.7030   -5.3340    3.5230 C.3    34  VAL34       0.1561
     26  C         22.5990   -6.5730    3.6000 C.2    34  VAL34       0.2260
     27  O         23.0830   -7.0720    2.5820 O.2    34  VAL34      -0.2867
     28  CB        20.2380   -5.7710    3.2990 C.3    34  VAL34       0.0252
     29  CG1       19.7540   -6.6540    4.4370 C.3    34  VAL34       0.0019
     30  CG2       19.3310   -4.5570    3.1440 C.3    34  VAL34       0.0019
     31  N         20.1880  -10.3610    7.1700 N.3    38  LYS38      -0.1245
     32  CA        19.0700   -9.4270    7.1020 C.3    38  LYS38       0.1561
     33  C         18.2350   -9.6820    5.8450 C.2    38  LYS38       0.2260
     34  O         17.0150   -9.5160    5.8580 O.2    38  LYS38      -0.2867
     35  CB        19.5840   -7.9810    7.1200 C.3    38  LYS38       0.0271
     36  CG        19.9300   -7.4290    8.5060 C.3    38  LYS38       0.0035
     37  CD        19.6410   -8.4150    9.6330 C.3    38  LYS38       0.0206
     38  CE        18.1930   -8.3330   10.0970 C.3    38  LYS38       0.1093
     39  NZ        18.0390   -8.7230   11.5270 N.3    38  LYS38      -0.1314
     40  N         15.6310  -13.1040    6.3570 N.3    41  LEU41      -0.1231
     41  CA        14.2940  -12.9860    6.9350 C.3    41  LEU41       0.1693
     42  C         13.4550  -11.9200    6.2410 C.2    41  LEU41       0.2591
     43  O         12.2450  -12.0850    6.0950 O.2    41  LEU41      -0.2718
     44  CB        14.3210  -12.7260    8.4300 C.3    41  LEU41       0.0284
     45  CG        15.4390  -11.8440    8.9590 C.3    41  LEU41       0.0019
     46  CD1       15.2470  -10.4210    8.4840 C.3    41  LEU41       0.0001
     47  CD2       15.4370  -11.9080   10.4650 C.3    41  LEU41       0.0001
     48  N         14.0940  -10.8340    5.8030 N.am   42  ALA42      -0.1980
     49  CA        13.3810   -9.7610    5.1130 C.3    42  ALA42       0.1597
     50  C         12.8810  -10.2320    3.7430 C.2    42  ALA42       0.2287
     51  O         12.0520   -9.5700    3.1150 O.2    42  ALA42      -0.2864
     52  CB        14.2760   -8.5370    4.9650 C.3    42  ALA42       0.0319
     53  N          5.0870  -11.4690    4.6260 N.3    47  LEU47      -0.1245
     54  CA         4.2980  -10.2720    4.8880 C.3    47  LEU47       0.1561
     55  C          2.8130  -10.4880    4.5960 C.2    47  LEU47       0.2260
     56  O          2.4100  -10.6360    3.4390 O.2    47  LEU47      -0.2867
     57  CB         4.8320   -9.1090    4.0470 C.3    47  LEU47       0.0270
     58  CG         4.4130   -7.7130    4.5090 C.3    47  LEU47       0.0019
     59  CD1        5.0490   -7.3740    5.8490 C.3    47  LEU47       0.0001
     60  CD2        4.7890   -6.6800    3.4570 C.3    47  LEU47       0.0001
     61  N         -3.9090   -0.3930    7.1180 N.3    60  VAL60      -0.1245
     62  CA        -3.4910   -1.7170    6.7010 C.3    60  VAL60       0.1561
     63  C         -2.6540   -2.4000    7.7770 C.2    60  VAL60       0.2260
     64  O         -1.7670   -1.7850    8.3760 O.2    60  VAL60      -0.2867
     65  CB        -2.6910   -1.6570    5.3850 C.3    60  VAL60       0.0252
     66  CG1       -3.6000   -1.2750    4.2250 C.3    60  VAL60       0.0019
     67  CG2       -1.5270   -0.6810    5.4940 C.3    60  VAL60       0.0019
     68  N          0.0610   -5.2200    8.7330 N.3    62  GLU62      -0.1245
     69  CA         1.1440   -6.0140    8.1650 C.3    62  GLU62       0.1567
     70  C          1.8890   -6.7740    9.2550 C.2    62  GLU62       0.2260
     71  O          2.2090   -6.2120   10.3050 O.2    62  GLU62      -0.2867
     72  CB         2.1250   -5.1150    7.4120 C.3    62  GLU62       0.0388
     73  CG         1.5900   -4.5930    6.0860 C.3    62  GLU62       0.1160
     74  CD         2.6820   -4.0520    5.1770 C.2    62  GLU62       0.3649
     75  OE1        3.8170   -3.8410    5.6590 O.co2  62  GLU62      -0.2457
     76  OE2        2.3990   -3.8350    3.9810 O.co2  62  GLU62      -0.2457
     77  N          9.6220  -11.3170   12.3270 N.3    66  PHE66      -0.1227
     78  CA        10.2070  -10.7480   13.5490 C.3    66  PHE66       0.1736
     79  C          9.3240   -9.6810   14.2200 C.2    66  PHE66       0.2595
     80  O          9.6590   -9.2110   15.3100 O.2    66  PHE66      -0.2718
     81  CB        11.6030  -10.1760   13.2620 C.3    66  PHE66       0.0547
     82  CG        11.6860   -9.3000   12.0440 C.ar   66  PHE66      -0.0202
     83  CD1       11.8630   -9.8550   10.7880 C.ar   66  PHE66      -0.0042
     84  CD2       11.6020   -7.9220   12.1590 C.ar   66  PHE66      -0.0042
     85  CE1       11.9510   -9.0530    9.6670 C.ar   66  PHE66      -0.0003
     86  CE2       11.6930   -7.1140   11.0430 C.ar   66  PHE66      -0.0003
     87  CZ        11.8670   -7.6790    9.7950 C.ar   66  PHE66      -0.0000
     88  N          8.2050   -9.2950   13.5900 N.am   67  ARG67      -0.1980
     89  CA         7.3160   -8.2810   14.1770 C.3    67  ARG67       0.1597
     90  C          6.0390   -8.0870   13.3490 C.2    67  ARG67       0.2287
     91  O          5.7960   -8.8160   12.3890 O.2    67  ARG67      -0.2864
     92  CB         8.0570   -6.9440   14.3160 C.3    67  ARG67       0.0334
     93  CG         8.3340   -6.2500   12.9900 C.3    67  ARG67       0.0492
     94  CD         8.1870   -4.7410   13.1130 C.3    67  ARG67       0.2205
     95  NE         7.6500   -4.1320   11.8960 N.pl3  67  ARG67      -0.0865
     96  CZ         7.3630   -2.8330   11.7790 C.cat  67  ARG67       0.5346
     97  NH1        7.5490   -2.0070   12.8080 N.pl3  67  ARG67       0.1354
     98  NH2        6.8870   -2.3600   10.6310 N.pl3  67  ARG67       0.1354
     99  N         -0.6680    0.4270   10.4460 N.3    71  VAL71      -0.1245
    100  CA        -0.3960    1.7960   10.0110 C.3    71  VAL71       0.1561
    101  C         -1.6600    2.4790    9.4940 C.2    71  VAL71       0.2260
    102  O         -2.5210    1.8390    8.8870 O.2    71  VAL71      -0.2867
    103  CB         0.6890    1.8350    8.9090 C.3    71  VAL71       0.0252
    104  CG1        0.8700    3.2510    8.3730 C.3    71  VAL71       0.0019
    105  CG2        2.0110    1.2910    9.4350 C.3    71  VAL71       0.0019
    106  N         -2.9210    6.1300    7.4120 N.3    73  PHE73      -0.1241
    107  CA        -2.5420    7.3270    6.6710 C.3    73  PHE73       0.1605
    108  C         -3.7750    8.0880    6.1770 C.2    73  PHE73       0.2264
    109  O         -4.9070    7.6190    6.3090 O.2    73  PHE73      -0.2867
    110  CB        -1.6450    6.9420    5.4810 C.3    73  PHE73       0.0534
    111  CG        -2.3360    7.0250    4.1430 C.ar   73  PHE73      -0.0203
    112  CD1       -3.4360    6.2280    3.8640 C.ar   73  PHE73      -0.0042
    113  CD2       -1.8970    7.9150    3.1770 C.ar   73  PHE73      -0.0042
    114  CE1       -4.0820    6.3170    2.6460 C.ar   73  PHE73      -0.0003
    115  CE2       -2.5390    8.0050    1.9580 C.ar   73  PHE73      -0.0003
    116  CZ        -3.6320    7.2060    1.6930 C.ar   73  PHE73      -0.0000
    117  N          3.1800   12.8080    7.2460 N.3    79  PHE79      -0.1241
    118  CA         3.4760   12.4510    8.6310 C.3    79  PHE79       0.1605
    119  C          4.8320   11.7470    8.7270 C.2    79  PHE79       0.2264
    120  O          5.3940   11.3210    7.7140 O.2    79  PHE79      -0.2867
    121  CB         2.3470   11.5900    9.2270 C.3    79  PHE79       0.0534
    122  CG         2.5280   10.1020    9.0770 C.ar   79  PHE79      -0.0203
    123  CD1        3.2490    9.3800   10.0150 C.ar   79  PHE79      -0.0042
    124  CD2        1.9640    9.4260    8.0090 C.ar   79  PHE79      -0.0042
    125  CE1        3.4070    8.0130    9.8880 C.ar   79  PHE79      -0.0003
    126  CE2        2.1160    8.0590    7.8780 C.ar   79  PHE79      -0.0003
    127  CZ         2.8390    7.3520    8.8180 C.ar   79  PHE79      -0.0000
    128  N          7.2130    8.7060    9.7030 N.3    81  TYR81      -0.1241
    129  CA         7.2030    7.2590    9.9040 C.3    81  TYR81       0.1605
    130  C          8.5880    6.7730   10.3280 C.2    81  TYR81       0.2264
    131  O          9.6000    7.1820    9.7510 O.2    81  TYR81      -0.2867
    132  CB         6.7600    6.5470    8.6220 C.3    81  TYR81       0.0534
    133  CG         6.6390    5.0460    8.7630 C.ar   81  TYR81      -0.0201
    134  CD1        5.4510    4.4630    9.1810 C.ar   81  TYR81      -0.0009
    135  CD2        7.7130    4.2140    8.4750 C.ar   81  TYR81      -0.0009
    136  CE1        5.3340    3.0930    9.3090 C.ar   81  TYR81       0.0417
    137  CE2        7.6050    2.8430    8.5990 C.ar   81  TYR81       0.0417
    138  CZ         6.4130    2.2870    9.0160 C.ar   81  TYR81       0.1957
    139  OH         6.3010    0.9190    9.1430 O.3    81  TYR81      -0.2866
    140  N         11.4210    3.5790   11.2560 N.3    83  LEU83      -0.1231
    141  CA        11.8220    2.2520   10.7930 C.3    83  LEU83       0.1693
    142  C         12.1520    1.3310   11.9700 C.2    83  LEU83       0.2592
    143  O         12.1330    1.7550   13.1270 O.2    83  LEU83      -0.2718
    144  CB        13.0350    2.3670    9.8650 C.3    83  LEU83       0.0284
    145  CG        12.7150    2.7930    8.4310 C.3    83  LEU83       0.0019
    146  CD1       13.9130    3.4830    7.7970 C.3    83  LEU83       0.0001
    147  CD2       12.2900    1.5920    7.6010 C.3    83  LEU83       0.0001
    148  N         12.4560    0.0690   11.6630 N.am   84  ALA84      -0.1966
    149  CA        12.7920   -0.9180   12.6900 C.3    84  ALA84       0.1728
    150  C         14.0540   -0.5260   13.4670 C.2    84  ALA84       0.2616
    151  O         14.1890   -0.8580   14.6460 O.2    84  ALA84      -0.2715
    152  CB        12.9660   -2.2950   12.0600 C.3    84  ALA84       0.0334
    153  N         14.9780    0.1720   12.8020 N.am   85  ASP85      -0.1971
    154  CA        16.2280    0.5920   13.4390 C.3    85  ASP85       0.1709
    155  C         16.0900    1.9450   14.1500 C.2    85  ASP85       0.2293
    156  O         16.9300    2.2940   14.9810 O.2    85  ASP85      -0.2864
    157  CB        17.3540    0.6600   12.4050 C.3    85  ASP85       0.1436
    158  CG        17.5250   -0.6410   11.6460 C.2    85  ASP85       0.3671
    159  OD1       18.1430   -1.5740   12.2010 O.co2  85  ASP85      -0.2456
    160  OD2       17.0390   -0.7280   10.4980 O.co2  85  ASP85      -0.2456
    161  N          1.0250    9.0490    1.0900 N.3    93  TRP93      -0.1241
    162  CA         0.4600    8.7480   -0.2180 C.3    93  TRP93       0.1605
    163  C         -0.5510    9.8110   -0.6460 C.2    93  TRP93       0.2264
    164  O         -1.1880   10.4590    0.1890 O.2    93  TRP93      -0.2867
    165  CB        -0.1920    7.3650   -0.2110 C.3    93  TRP93       0.0550
    166  CG         0.7990    6.2540   -0.3720 C.ar   93  TRP93       0.0003
    167  CD1        1.7330    5.8520    0.5390 C.ar   93  TRP93       0.0946
    168  CD2        0.9640    5.4080   -1.5150 C.ar   93  TRP93       0.0152
    169  NE1        2.4650    4.8070    0.0330 N.ar   93  TRP93      -0.2442
    170  CE2        2.0120    4.5160   -1.2230 C.ar   93  TRP93       0.0810
    171  CE3        0.3260    5.3140   -2.7550 C.ar   93  TRP93       0.0012
    172  CZ2        2.4370    3.5470   -2.1230 C.ar   93  TRP93       0.0191
    173  CZ3        0.7510    4.3500   -3.6480 C.ar   93  TRP93       0.0001
    174  CH2        1.7990    3.4780   -3.3260 C.ar   93  TRP93       0.0015
    175  N          8.4680    8.8110    0.1800 N.3   104  PHE104     -0.1241
    176  CA         9.0940    8.9450    1.4960 C.3   104  PHE104      0.1605
    177  C         10.5710    9.2980    1.3210 C.2   104  PHE104      0.2264
    178  O         11.2260    8.7770    0.4150 O.2   104  PHE104     -0.2867
    179  CB         8.9600    7.6530    2.3090 C.3   104  PHE104      0.0534
    180  CG         7.5410    7.2750    2.6210 C.ar  104  PHE104     -0.0203
    181  CD1        6.7690    6.5920    1.6940 C.ar  104  PHE104     -0.0042
    182  CD2        6.9800    7.6030    3.8430 C.ar  104  PHE104     -0.0042
    183  CE1        5.4640    6.2430    1.9810 C.ar  104  PHE104     -0.0003
    184  CE2        5.6750    7.2570    4.1360 C.ar  104  PHE104     -0.0003
    185  CZ         4.9170    6.5760    3.2040 C.ar  104  PHE104     -0.0000
    186  N          6.8460    5.1640   -4.7620 N.3   115  THR115     -0.1218
    187  CA         6.0500    3.9430   -4.8370 C.3   115  THR115      0.1862
    188  C          4.6330    4.2150   -5.3460 C.2   115  THR115      0.2287
    189  O          3.9900    5.1800   -4.9380 O.2   115  THR115     -0.2866
    190  CB         5.9990    3.2720   -3.4560 C.3   115  THR115      0.1770
    191  OG1        5.1690    2.1220   -3.4700 O.3   115  THR115     -0.2211
    192  CG2        5.4970    4.1820   -2.3560 C.3   115  THR115      0.0375
    193  N          0.6490    2.4200   -6.2740 N.3   117  ARG117     -0.1245
    194  CA        -0.2380    1.2940   -5.9410 C.3   117  ARG117      0.1563
    195  C         -1.1950    0.9530   -7.0870 C.2   117  ARG117      0.2260
    196  O         -1.8800    1.8340   -7.6120 O.2   117  ARG117     -0.2867
    197  CB        -1.0540    1.6170   -4.6830 C.3   117  ARG117      0.0307
    198  CG        -0.5000    0.9970   -3.4100 C.3   117  ARG117      0.0489
    199  CD        -1.4950    1.0980   -2.2620 C.3   117  ARG117      0.2205
    200  NE        -1.2270    2.2470   -1.3940 N.pl3 117  ARG117     -0.0865
    201  CZ        -0.5150    2.1870   -0.2630 C.cat 117  ARG117      0.5346
    202  NH1        0.0260    1.0410    0.1380 N.pl3 117  ARG117      0.1354
    203  NH2       -0.3430    3.2800    0.4690 N.pl3 117  ARG117      0.1354
    204  N          2.3330   -3.3940   -5.6610 N.3   126  GLN126     -0.1245
    205  CA         2.9030   -2.1420   -5.1740 C.3   126  GLN126      0.1566
    206  C          4.3330   -2.0060   -5.6920 C.2   126  GLN126      0.2260
    207  O          5.1770   -2.8590   -5.4150 O.2   126  GLN126     -0.2867
    208  CB         2.8850   -2.0920   -3.6440 C.3   126  GLN126      0.0367
    209  CG         3.3030   -0.7450   -3.0740 C.3   126  GLN126      0.0905
    210  CD         2.6100   -0.4120   -1.7650 C.2   126  GLN126      0.2608
    211  OE1        2.1270    0.7010   -1.5820 O.2   126  GLN126     -0.2717
    212  NE2        2.5670   -1.3680   -0.8430 N.am  126  GLN126     -0.0878
    213  N          8.0440    0.0060   -6.0910 N.3   128  TYR128     -0.1241
    214  CA         8.9440    0.8880   -5.3480 C.3   128  TYR128      0.1605
    215  C         10.2030    1.1580   -6.1570 C.2   128  TYR128      0.2264
    216  O         10.8990    0.2290   -6.5770 O.2   128  TYR128     -0.2867
    217  CB         9.3560    0.3020   -3.9960 C.3   128  TYR128      0.0534
    218  CG         8.2420   -0.3440   -3.2030 C.ar  128  TYR128     -0.0201
    219  CD1        7.6580   -1.5340   -3.6180 C.ar  128  TYR128     -0.0009
    220  CD2        7.7870    0.2360   -2.0260 C.ar  128  TYR128     -0.0009
    221  CE1        6.6500   -2.1260   -2.8840 C.ar  128  TYR128      0.0417
    222  CE2        6.7810   -0.3520   -1.2840 C.ar  128  TYR128      0.0417
    223  CZ         6.2150   -1.5330   -1.7180 C.ar  128  TYR128      0.1957
    224  OH         5.2120   -2.1260   -0.9840 O.3   128  TYR128     -0.2866
@<TRIPOS>BOND
     1   196   195    2
     2   195   194    1
     3   216   215    2
     4   193   194    1
     5   215   214    1
     6     1     2    1
     7   213   214    1
     8   194   197    1
     9   206   207    2
    10   206   205    1
    11   204   205    1
    12   214   217    1
    13   188   189    2
    14   188   187    1
    15   205   208    1
    16   187   186    1
    17   187   190    1
    18    13    14    1
    19     2     3    1
    20     2     5    1
    21   197   198    1
    22     3     4    2
    23   217   218    1
    24    14    17    1
    25    14    15    1
    26     5     6    1
    27   173   174   ar
    28   173   171   ar
    29   208   209    1
    30    17    18    1
    31   219   218   ar
    32   219   221   ar
    33   191   190    1
    34   190   192    1
    35   198   199    1
    36   174   172   ar
    37   218   220   ar
    38   209   210    1
    39   221   223   ar
    40    20    18   ar
    41    20    22   ar
    42   171   168   ar
    43    18    19   ar
    44    15    16    2
    45     6     7   ar
    46     6     8   ar
    47   199   200    1
    48   172   170   ar
    49   220   222   ar
    50    22    23   ar
    51     7     9   ar
    52   210   211    2
    53   210   212   am
    54   223   222   ar
    55   223   224    1
    56   168   170   ar
    57   168   166   ar
    58     8    10   ar
    59   200   201    2
    60   170   169   ar
    61    19    21   ar
    62   163   162    1
    63   163   164    2
    64    23    21   ar
    65     9    11   ar
    66   166   165    1
    67   166   167   ar
    68   201   202    1
    69   201   203    1
    70   162   165    1
    71   162   161    1
    72    10    11   ar
    73   169   167   ar
    74   175   176    1
    75    11    12    1
    76   178   177    2
    77   177   176    1
    78   176   179    1
    79   116   115   ar
    80   116   114   ar
    81   181   183   ar
    82   181   180   ar
    83   115   113   ar
    84   183   185   ar
    85   179   180    1
    86    24    25    1
    87    27    26    2
    88   180   182   ar
    89   114   112   ar
    90    51    50    2
    91    30    28    1
    92   113   111   ar
    93   185   184   ar
    94    28    25    1
    95    28    29    1
    96    56    55    2
    97    60    58    1
    98    25    26    1
    99    50    49    1
   100   182   184   ar
   101   112   111   ar
   102    76    74   ar
   103    57    58    1
   104    57    54    1
   105   111   110    1
   106    66    65    1
   107    58    59    1
   108    55    54    1
   109    53    54    1
   110    52    49    1
   111    49    48    1
   112    74    75   ar
   113    74    73    1
   114    65    67    1
   115    65    62    1
   116   110   107    1
   117    48    42   am
   118    33    34    2
   119    33    32    1
   120    73    72    1
   121    43    42    2
   122   108   109    2
   123   108   107    1
   124    42    41    1
   125    40    41    1
   126   107   106    1
   127    62    61    1
   128    62    63    1
   129    41    44    1
   130    32    35    1
   131    32    31    1
   132    35    36    1
   133   117   118    1
   134    72    69    1
   135   147   145    1
   136   120   119    2
   137    63    64    2
   138   146   145    1
   139   126   124   ar
   140   126   127   ar
   141   124   122   ar
   142    69    68    1
   143    69    70    1
   144   104   103    1
   145    44    45    1
   146   145   144    1
   147   135   137   ar
   148   135   133   ar
   149    46    45    1
   150    36    37    1
   151   137   138   ar
   152   132   133    1
   153   132   129    1
   154   118   119    1
   155   118   121    1
   156   133   134   ar
   157   127   125   ar
   158   102   101    2
   159   103   105    1
   160   103   100    1
   161    45    47    1
   162   138   139    1
   163   138   136   ar
   164   122   121    1
   165   122   123   ar
   166   134   136   ar
   167    70    71    2
   168   101   100    1
   169    37    38    1
   170    85    87   ar
   171    85    83   ar
   172   128   129    1
   173   131   130    2
   174    87    86   ar
   175   144   141    1
   176   125   123   ar
   177   129   130    1
   178   100    99    1
   179    38    39    1
   180   160   158   ar
   181    98    96    1
   182    83    82   ar
   183   141   140    1
   184   141   142    1
   185    86    84   ar
   186   158   159   ar
   187   158   157    1
   188   148   142   am
   189   148   149    1
   190    96    95    2
   191    96    97    1
   192    95    94    1
   193   142   143    2
   194    82    84   ar
   195    82    81    1
   196   152   149    1
   197    77    78    1
   198    91    90    2
   199   157   154    1
   200   149   150    1
   201   153   154    1
   202   153   150   am
   203    93    94    1
   204    93    92    1
   205    81    78    1
   206    90    89    1
   207   154   155    1
   208   150   151    2
   209    78    79    1
   210    88    89    1
   211    88    79   am
   212   155   156    2
   213    89    92    1
   214    79    80    2
