@<TRIPOS>MOLECULE
tmp/2mokA00.pdb
 171 174 0 0 0
SMALL
GASTEIGER

@<TRIPOS>ATOM
      1  N         10.8800  -20.9980    3.8090 N.3    10  SER10      -0.1202
      2  CA        10.8980  -21.3740    5.2260 C.3    10  SER10       0.2020
      3  C         10.6180  -22.8720    5.4120 C.2    10  SER10       0.2619
      4  O         10.1830  -23.5490    4.4750 O.2    10  SER10      -0.2717
      5  CB         9.8780  -20.5040    5.9940 C.3    10  SER10       0.2103
      6  OG         8.6010  -20.4730    5.3740 O.3    10  SER10      -0.2182
      7  N         10.8910  -23.3860    6.6190 N.am   11  ASP11      -0.1959
      8  CA        10.4610  -24.7230    7.0490 C.3    11  ASP11       0.1840
      9  C         10.1140  -24.7000    8.5380 C.2    11  ASP11       0.2623
     10  O          8.9620  -24.9370    8.9090 O.2    11  ASP11      -0.2715
     11  CB        11.5260  -25.7880    6.7830 C.3    11  ASP11       0.1450
     12  CG        10.8810  -27.1800    6.8720 C.2    11  ASP11       0.3671
     13  OD1       10.3630  -27.6740    5.8380 O.co2  11  ASP11      -0.2456
     14  OD2       10.8580  -27.7750    7.9760 O.co2  11  ASP11      -0.2456
     15  N         11.0840  -24.3180    9.3820 N.am   12  THR12      -0.1937
     16  CA        10.9110  -24.1400   10.8220 C.3    12  THR12       0.2028
     17  C         10.3310  -22.7520   11.1640 C.2    12  THR12       0.2643
     18  O          9.8800  -22.5330   12.2930 O.2    12  THR12      -0.2714
     19  CB        12.2550  -24.4480   11.5230 C.3    12  THR12       0.1808
     20  OG1       13.3730  -24.0360   10.7450 O.3    12  THR12      -0.2208
     21  CG2       12.4280  -25.9550   11.7140 C.3    12  THR12       0.0379
     22  N         10.3030  -21.8250   10.1960 N.am   13  GLY13      -0.1939
     23  CA         9.7050  -20.4990   10.3310 C.3    13  GLY13       0.2014
     24  C         10.7190  -19.4210   10.7200 C.2    13  GLY13       0.2639
     25  O         10.3240  -18.2860   10.9860 O.2    13  GLY13      -0.2714
     26  N         12.0210  -19.7440   10.7360 N.am   14  ASN14      -0.1958
     27  CA        13.0620  -18.8040   11.1740 C.3    14  ASN14       0.1819
     28  C         13.1640  -17.6140   10.2140 C.2    14  ASN14       0.2621
     29  O         13.3470  -16.4790   10.6530 O.2    14  ASN14      -0.2715
     30  CB        14.4060  -19.5470   11.3280 C.3    14  ASN14       0.1195
     31  CG        15.6130  -18.6140   11.2100 C.2    14  ASN14       0.2630
     32  OD1       16.0540  -18.0150   12.1860 O.2    14  ASN14      -0.2716
     33  ND2       16.1520  -18.4650   10.0070 N.am   14  ASN14      -0.0877
     34  N         13.0110  -17.8460    8.9090 N.am   15  THR15      -0.1951
     35  CA        13.1880  -16.8180    7.8800 C.3    15  THR15       0.1897
     36  C         12.1110  -15.7280    7.9680 C.2    15  THR15       0.2313
     37  O         12.3750  -14.5960    7.5680 O.2    15  THR15      -0.2863
     38  CB        13.2120  -17.4640    6.4830 C.3    15  THR15       0.1794
     39  OG1       12.7370  -18.7930    6.5420 O.3    15  THR15      -0.2208
     40  CG2       14.5960  -17.5120    5.8370 C.3    15  THR15       0.0378
     41  N         16.4910  -20.5880    2.7680 N.3    55  PRO55      -0.2102
     42  CA        17.1920  -21.5390    3.6190 C.3    55  PRO55       0.1504
     43  C         17.6980  -22.7090    2.7640 C.2    55  PRO55       0.2576
     44  O         17.1950  -22.9560    1.6670 O.2    55  PRO55      -0.2718
     45  CB        16.1450  -21.9760    4.6450 C.3    55  PRO55       0.0282
     46  CG        14.8520  -21.9640    3.8270 C.3    55  PRO55       0.0208
     47  CD        15.0510  -20.7890    2.8730 C.3    55  PRO55       0.0893
     48  N         18.6630  -23.4660    3.2790 N.am   56  THR56      -0.1939
     49  CA        19.1450  -24.6920    2.6470 C.3    56  THR56       0.2028
     50  C         18.8770  -25.8520    3.6080 C.2    56  THR56       0.2642
     51  O         19.0330  -25.6990    4.8200 O.2    56  THR56      -0.2714
     52  CB        20.6270  -24.5230    2.2910 C.3    56  THR56       0.1808
     53  OG1       20.8100  -23.3870    1.4640 O.3    56  THR56      -0.2208
     54  CG2       21.1990  -25.7170    1.5330 C.3    56  THR56       0.0379
     55  N         18.4830  -27.0030    3.0730 N.am   57  TRP57      -0.1959
     56  CA        18.1400  -28.2010    3.8300 C.3    57  TRP57       0.1771
     57  C         18.7980  -29.4200    3.1800 C.2    57  TRP57       0.2620
     58  O         19.4090  -29.2840    2.1250 O.2    57  TRP57      -0.2715
     59  CB        16.6110  -28.3220    3.8890 C.3    57  TRP57       0.0590
     60  CG        15.9800  -27.3880    4.8710 C.ar   57  TRP57       0.0006
     61  CD1       15.6610  -26.0930    4.6550 C.ar   57  TRP57       0.0946
     62  CD2       15.6230  -27.6600    6.2600 C.ar   57  TRP57       0.0152
     63  NE1       15.1320  -25.5470    5.8080 N.ar   57  TRP57      -0.2442
     64  CE2       15.1300  -26.4570    6.8450 C.ar   57  TRP57       0.0810
     65  CE3       15.6840  -28.8010    7.0870 C.ar   57  TRP57       0.0012
     66  CZ2       14.7570  -26.3810    8.1970 C.ar   57  TRP57       0.0191
     67  CZ3       15.2740  -28.7450    8.4320 C.ar   57  TRP57       0.0001
     68  CH2       14.8310  -27.5360    8.9920 C.ar   57  TRP57       0.0015
     69  N         18.6860  -30.5860    3.8270 N.am   58  TYR58      -0.1960
     70  CA        19.0240  -31.9220    3.3260 C.3    58  TYR58       0.1771
     71  C         20.1470  -31.9430    2.2700 C.2    58  TYR58       0.2620
     72  O         19.9230  -32.3410    1.1240 O.2    58  TYR58      -0.2715
     73  CB        17.7380  -32.6180    2.8510 C.3    58  TYR58       0.0574
     74  CG        16.6610  -32.7250    3.9190 C.ar   58  TYR58      -0.0198
     75  CD1       16.8360  -33.5950    5.0120 C.ar   58  TYR58      -0.0009
     76  CD2       15.4950  -31.9390    3.8310 C.ar   58  TYR58      -0.0009
     77  CE1       15.8540  -33.6780    6.0160 C.ar   58  TYR58       0.0417
     78  CE2       14.5160  -32.0050    4.8360 C.ar   58  TYR58       0.0417
     79  CZ        14.6940  -32.8740    5.9380 C.ar   58  TYR58       0.1957
     80  OH        13.7540  -32.9550    6.9230 O.3    58  TYR58      -0.2866
     81  N         21.3600  -31.5400    2.6750 N.am   59  TYR59      -0.1960
     82  CA        22.5640  -31.5710    1.8420 C.3    59  TYR59       0.1771
     83  C         22.3740  -30.7740    0.5390 C.2    59  TYR59       0.2620
     84  O         22.4400  -31.3180   -0.5710 O.2    59  TYR59      -0.2715
     85  CB        23.0410  -33.0200    1.6170 C.3    59  TYR59       0.0574
     86  CG        23.2870  -33.8070    2.8930 C.ar   59  TYR59      -0.0198
     87  CD1       24.5310  -33.7150    3.5480 C.ar   59  TYR59      -0.0009
     88  CD2       22.2700  -34.6170    3.4390 C.ar   59  TYR59      -0.0009
     89  CE1       24.7500  -34.4010    4.7560 C.ar   59  TYR59       0.0417
     90  CE2       22.4810  -35.3080    4.6450 C.ar   59  TYR59       0.0417
     91  CZ        23.7210  -35.1960    5.3150 C.ar   59  TYR59       0.1957
     92  OH        23.9120  -35.8410    6.4990 O.3    59  TYR59      -0.2866
     93  N         22.1490  -29.4640    0.6820 N.am   60  GLY60      -0.1954
     94  CA        22.1360  -28.5290   -0.4400 C.3    60  GLY60       0.1869
     95  C         20.8000  -28.4600   -1.1870 C.2    60  GLY60       0.2309
     96  O         20.7530  -27.9390   -2.3030 O.2    60  GLY60      -0.2863
     97  N         20.2420  -18.6990    6.0450 N.3    88  CYS88      -0.1221
     98  CA        20.6550  -19.2260    7.3390 C.3    88  CYS88       0.1808
     99  C         20.9860  -20.7110    7.1270 C.2    88  CYS88       0.2602
    100  O         20.4670  -21.3040    6.1740 O.2    88  CYS88      -0.2717
    101  CB        19.4960  -19.0850    8.3470 C.3    88  CYS88       0.0970
    102  SG        18.6140  -17.4930    8.1930 S.3    88  CYS88      -0.0800
    103  N         21.7810  -21.3300    8.0050 N.am   89  GLY89      -0.1942
    104  CA        22.1470  -22.7220    7.8010 C.3    89  GLY89       0.2014
    105  C         22.8500  -23.3840    8.9850 C.2    89  GLY89       0.2638
    106  O         22.9890  -22.8030   10.0640 O.2    89  GLY89      -0.2714
    107  N         23.2780  -24.6190    8.7350 N.am   90  ASP90      -0.1971
    108  CA        24.0190  -25.5440    9.5900 C.3    90  ASP90       0.1709
    109  C         24.9500  -26.2830    8.6350 C.2    90  ASP90       0.2293
    110  O         24.5660  -26.5740    7.4960 O.2    90  ASP90      -0.2864
    111  CB        23.0610  -26.5350   10.2680 C.3    90  ASP90       0.1436
    112  CG        23.7130  -27.5910   11.1840 C.2    90  ASP90       0.3671
    113  OD1       24.9550  -27.7640   11.2340 O.co2  90  ASP90      -0.2456
    114  OD2       22.9430  -28.3140   11.8580 O.co2  90  ASP90      -0.2456
    115  N         26.9730  -30.9010    7.0930 N.3    94  TYR94      -0.1241
    116  CA        26.6820  -30.3350    5.7710 C.3    94  TYR94       0.1605
    117  C         27.8200  -29.3850    5.3320 C.2    94  TYR94       0.2264
    118  O         27.5720  -28.2910    4.8220 O.2    94  TYR94      -0.2867
    119  CB        25.2810  -29.6750    5.7710 C.3    94  TYR94       0.0534
    120  CG        24.2400  -30.3480    6.6530 C.ar   94  TYR94      -0.0201
    121  CD1       23.5220  -31.4590    6.1770 C.ar   94  TYR94      -0.0009
    122  CD2       24.0440  -29.9080    7.9790 C.ar   94  TYR94      -0.0009
    123  CE1       22.6450  -32.1580    7.0250 C.ar   94  TYR94       0.0417
    124  CE2       23.1600  -30.5930    8.8310 C.ar   94  TYR94       0.0417
    125  CZ        22.4690  -31.7340    8.3630 C.ar   94  TYR94       0.1957
    126  OH        21.6600  -32.4240    9.2150 O.3    94  TYR94      -0.2866
    127  N         27.8060  -27.5970    1.9660 N.3    97  TYR97      -0.1227
    128  CA        26.4570  -27.1870    1.5750 C.3    97  TYR97       0.1736
    129  C         25.9480  -25.9730    2.3610 C.2    97  TYR97       0.2595
    130  O         24.7390  -25.7200    2.3680 O.2    97  TYR97      -0.2718
    131  CB        25.4880  -28.3740    1.7320 C.3    97  TYR97       0.0548
    132  CG        25.8320  -29.6180    0.9380 C.ar   97  TYR97      -0.0200
    133  CD1       25.6650  -29.6220   -0.4600 C.ar   97  TYR97      -0.0009
    134  CD2       26.2900  -30.7750    1.5970 C.ar   97  TYR97      -0.0009
    135  CE1       25.9450  -30.7830   -1.2020 C.ar   97  TYR97       0.0417
    136  CE2       26.5780  -31.9380    0.8580 C.ar   97  TYR97       0.0417
    137  CZ        26.4030  -31.9490   -0.5440 C.ar   97  TYR97       0.1957
    138  OH        26.6690  -33.0890   -1.2440 O.3    97  TYR97      -0.2866
    139  N         26.8140  -25.2260    3.0580 N.am   98  PHE98      -0.1962
    140  CA        26.3440  -24.0930    3.8520 C.3    98  PHE98       0.1771
    141  C         25.7130  -23.0510    2.9310 C.2    98  PHE98       0.2619
    142  O         26.3750  -22.5570    2.0130 O.2    98  PHE98      -0.2715
    143  CB        27.4680  -23.4530    4.6670 C.3    98  PHE98       0.0574
    144  CG        26.9930  -22.2940    5.5240 C.ar   98  PHE98      -0.0200
    145  CD1       26.0200  -22.4940    6.5220 C.ar   98  PHE98      -0.0042
    146  CD2       27.4830  -20.9960    5.2790 C.ar   98  PHE98      -0.0042
    147  CE1       25.5550  -21.4020    7.2760 C.ar   98  PHE98      -0.0003
    148  CE2       27.0150  -19.9080    6.0340 C.ar   98  PHE98      -0.0003
    149  CZ        26.0490  -20.1090    7.0300 C.ar   98  PHE98      -0.0000
    150  N         24.4390  -22.7350    3.1900 N.am   99  CYS99      -0.1968
    151  CA        23.6190  -21.8010    2.4220 C.3    99  CYS99       0.1712
    152  C         23.7180  -22.0470    0.9060 C.2    99  CYS99       0.2296
    153  O         23.7160  -21.0970    0.1220 O.2    99  CYS99      -0.2864
    154  CB        23.9090  -20.3490    2.8430 C.3    99  CYS99       0.0983
    155  SG        23.5680  -20.1030    4.6140 S.3    99  CYS99      -0.0798
    156  N         24.3450  -23.0700   14.0680 N.3   149  GLN149     -0.1231
    157  CA        22.9520  -22.6260   14.0020 C.3   149  GLN149      0.1683
    158  C         22.9390  -21.1000   13.8330 C.2   149  GLN149      0.2434
    159  O         23.9170  -20.4490   14.2010 O.2   149  GLN149     -0.2733
    160  CB        22.1930  -23.0190   15.2840 C.3   149  GLN149      0.0380
    161  CG        22.0020  -24.5380   15.4490 C.3   149  GLN149      0.0905
    162  CD        21.1510  -24.9280   16.6640 C.2   149  GLN149      0.2608
    163  OE1       20.6810  -24.0970   17.4410 O.2   149  GLN149     -0.2717
    164  NE2       20.9260  -26.2220   16.8580 N.am  149  GLN149     -0.0878
    165  N         21.8640  -20.4880   13.3090 N.am  150  PRO150     -0.2729
    166  CA        21.7340  -19.0380   13.3030 C.3   150  PRO150      0.1401
    167  C         21.4090  -18.5270   14.7210 C.2   150  PRO150      0.2269
    168  O         20.3290  -18.8000   15.2560 O.2   150  PRO150     -0.2865
    169  CB        20.6220  -18.7450   12.2900 C.3   150  PRO150      0.0296
    170  CG        19.7420  -19.9980   12.3390 C.3   150  PRO150      0.0237
    171  CD        20.7370  -21.1210   12.6350 C.3   150  PRO150      0.0939
@<TRIPOS>BOND
     1    96    95    2
     2   138   137    1
     3   135   137   ar
     4   135   133   ar
     5    95    94    1
     6    84    83    2
     7   137   136   ar
     8   133   132   ar
     9    94    93    1
    10   153   152    2
    11    83    93   am
    12    83    82    1
    13   136   134   ar
    14   152   151    1
    15   132   134   ar
    16   132   131    1
    17    72    71    2
    18    53    52    1
    19    54    52    1
    20   128   131    1
    21   128   127    1
    22   128   129    1
    23    85    82    1
    24    85    86    1
    25    44    43    2
    26    82    81    1
    27   142   141    2
    28    58    57    2
    29    71    81   am
    30    71    70    1
    31    52    49    1
    32   129   130    2
    33   129   139   am
    34   151   154    1
    35   151   150    1
    36    49    48    1
    37    49    50    1
    38    43    48   am
    39    43    42    1
    40    41    47    1
    41    41    42    1
    42   154   155    1
    43    73    70    1
    44    73    74    1
    45    47    46    1
    46    86    88   ar
    47    86    87   ar
    48   141   150   am
    49   141   140    1
    50   139   140    1
    51    55    50   am
    52    55    56    1
    53    57    69   am
    54    57    56    1
    55    70    69    1
    56    88    90   ar
    57    87    89   ar
    58    50    51    2
    59    42    45    1
    60     1     2    1
    61    46    45    1
    62    56    59    1
    63    76    74   ar
    64    76    78   ar
    65   140   143    1
    66    59    60    1
    67    74    75   ar
    68     4     3    2
    69    90    91   ar
    70    61    60   ar
    71    61    63   ar
    72   143   144    1
    73    89    91   ar
    74   118   117    2
    75    78    79   ar
    76    60    62   ar
    77    75    77   ar
    78     2     3    1
    79     2     5    1
    80   146   144   ar
    81   146   148   ar
    82    91    92    1
    83   117   116    1
    84     6     5    1
    85     3     7   am
    86   144   145   ar
    87   116   119    1
    88   116   115    1
    89   119   120    1
    90    63    64   ar
    91    40    38    1
    92    13    12   ar
    93    79    77   ar
    94    79    80    1
    95   148   149   ar
    96    97    98    1
    97   100    99    2
    98   121   120   ar
    99   121   123   ar
   100    62    64   ar
   101    62    65   ar
   102    38    39    1
   103    38    35    1
   104   145   147   ar
   105     7     8    1
   106   120   122   ar
   107    11    12    1
   108    11     8    1
   109    64    66   ar
   110    12    14   ar
   111   123   125   ar
   112   149   147   ar
   113     8     9    1
   114    65    67   ar
   115    99    98    1
   116    99   103   am
   117    98   101    1
   118   110   109    2
   119    37    36    2
   120   104   103    1
   121   104   105    1
   122    35    36    1
   123    35    34    1
   124   122   124   ar
   125   102   101    1
   126    66    68   ar
   127   125   124   ar
   128   125   126    1
   129    67    68   ar
   130     9    10    2
   131     9    15   am
   132   109   108    1
   133   107   105   am
   134   107   108    1
   135    34    28   am
   136   105   106    2
   137    15    16    1
   138   108   111    1
   139    33    31   am
   140    22    23    1
   141    22    17   am
   142    28    29    2
   143    28    27    1
   144   111   112    1
   145    23    24    1
   146    24    26   am
   147    24    25    2
   148    26    27    1
   149    20    19    1
   150    16    17    1
   151    16    19    1
   152    17    18    2
   153    27    30    1
   154   112   113   ar
   155   112   114   ar
   156    31    30    1
   157    31    32    2
   158    19    21    1
   159   169   170    1
   160   169   166    1
   161   170   171    1
   162   171   165    1
   163   166   165    1
   164   166   167    1
   165   165   158   am
   166   158   157    1
   167   158   159    2
   168   157   156    1
   169   157   160    1
   170   167   168    2
   171   160   161    1
   172   161   162    1
   173   162   164   am
   174   162   163    2
