@<TRIPOS>MOLECULE
tmp/2movA00.pdb
 78 73 0 0 0
SMALL
GASTEIGER

@<TRIPOS>ATOM
      1  N          3.4540   -1.9650   -0.9680 N.3     2  SER2       -0.1202
      2  CA         4.7030   -2.7020   -0.8220 C.3     2  SER2        0.2020
      3  C          4.4390   -4.1980   -0.6830 C.2     2  SER2        0.2618
      4  O          3.9600   -4.6620    0.3510 O.2     2  SER2       -0.2717
      5  CB         5.4790   -2.1950    0.3960 C.3     2  SER2        0.2103
      6  OG         6.4720   -1.2590    0.0140 O.3     2  SER2       -0.2182
      7  N          4.7540   -4.9480   -1.7340 N.am    3  ALA3       -0.1979
      8  CA         4.5530   -6.3920   -1.7300 C.3     3  ALA3        0.1597
      9  C          3.1310   -6.7470   -1.3090 C.2     3  ALA3        0.2287
     10  O          2.9080   -7.2550   -0.2110 O.2     3  ALA3       -0.2864
     11  CB         5.5610   -7.0630   -0.8090 C.3     3  ALA3        0.0319
     12  N          8.1780    2.5640  -16.5590 N.3    30  GLU30      -0.1245
     13  CA         8.5390    1.2210  -16.9960 C.3    30  GLU30       0.1567
     14  C          7.7340    0.1680  -16.2390 C.2    30  GLU30       0.2260
     15  O          7.3990    0.3510  -15.0680 O.2    30  GLU30      -0.2867
     16  CB        10.0350    0.9780  -16.7910 C.3    30  GLU30       0.0388
     17  CG        10.6670    0.1190  -17.8740 C.3    30  GLU30       0.1160
     18  CD        10.5900    0.7610  -19.2460 C.2    30  GLU30       0.3649
     19  OE1        9.5500    0.6010  -19.9180 O.co2  30  GLU30      -0.2457
     20  OE2       11.5700    1.4220  -19.6470 O.co2  30  GLU30      -0.2457
     21  N          7.4750   -4.1110  -15.4030 N.3    32  LYS32      -0.1245
     22  CA         8.1290   -5.4130  -15.4400 C.3    32  LYS32       0.1561
     23  C          7.3150   -6.4540  -14.6790 C.2    32  LYS32       0.2260
     24  O          6.7210   -6.1560  -13.6420 O.2    32  LYS32      -0.2867
     25  CB         9.5360   -5.3170  -14.8460 C.3    32  LYS32       0.0271
     26  CG        10.5310   -6.2750  -15.4790 C.3    32  LYS32       0.0035
     27  CD        11.9490   -5.7360  -15.4040 C.3    32  LYS32       0.0206
     28  CE        12.5270   -5.8800  -14.0040 C.3    32  LYS32       0.1093
     29  NZ        13.5460   -4.8330  -13.7140 N.3    32  LYS32      -0.1314
     30  N          6.2130   -6.2520  -10.7450 N.3    78  ARG78      -0.1231
     31  CA         6.9960   -5.1040  -10.3030 C.3    78  ARG78       0.1694
     32  C          6.7920   -3.9150  -11.2370 C.2    78  ARG78       0.2592
     33  O          6.8770   -4.0490  -12.4580 O.2    78  ARG78      -0.2718
     34  CB         8.4800   -5.4670  -10.2390 C.3    78  ARG78       0.0321
     35  CG         8.7400   -6.8950   -9.7850 C.3    78  ARG78       0.0489
     36  CD        10.1650   -7.0700   -9.2850 C.3    78  ARG78       0.2205
     37  NE        10.4660   -8.4630   -8.9670 N.pl3  78  ARG78      -0.0865
     38  CZ        11.6110   -8.8630   -8.4260 C.cat  78  ARG78       0.5346
     39  NH1       12.5580   -7.9800   -8.1440 N.pl3  78  ARG78       0.1354
     40  NH2       11.8100  -10.1490   -8.1660 N.pl3  78  ARG78       0.1354
     41  N          6.5210   -2.7520  -10.6540 N.am   79  CYS79      -0.1956
     42  CA         6.3040   -1.5380  -11.4330 C.3    79  CYS79       0.1843
     43  C          7.2280   -0.4180  -10.9630 C.2    79  CYS79       0.2625
     44  O          7.6900   -0.4190   -9.8230 O.2    79  CYS79      -0.2714
     45  CB         4.8450   -1.0910  -11.3220 C.3    79  CYS79       0.0997
     46  SG         4.3570    0.1650  -12.5490 S.3    79  CYS79      -0.0797
     47  N          7.4920    0.5350  -11.8520 N.am   80  GLN80      -0.1977
     48  CA         8.3610    1.6600  -11.5280 C.3    80  GLN80       0.1601
     49  C          7.8300    2.9520  -12.1420 C.2    80  GLN80       0.2287
     50  O          7.3030    2.9510  -13.2540 O.2    80  GLN80      -0.2864
     51  CB         9.7830    1.3930  -12.0240 C.3    80  GLN80       0.0394
     52  CG         9.9830    1.7110  -13.4970 C.3    80  GLN80       0.0908
     53  CD        11.4210    1.5290  -13.9430 C.2    80  GLN80       0.2608
     54  OE1       11.8450    0.4220  -14.2740 O.2    80  GLN80      -0.2717
     55  NE2       12.1800    2.6190  -13.9540 N.am   80  GLN80      -0.0878
     56  N          8.7310    2.7300   -6.4420 N.3    90  LYS90      -0.1231
     57  CA         8.7590    1.2820   -6.6150 C.3    90  LYS90       0.1693
     58  C          7.4620    0.6500   -6.1210 C.2    90  LYS90       0.2593
     59  O          6.8880    1.0850   -5.1230 O.2    90  LYS90      -0.2718
     60  CB         9.9500    0.6820   -5.8640 C.3    90  LYS90       0.0285
     61  CG        11.1840    0.4970   -6.7290 C.3    90  LYS90       0.0035
     62  CD        11.6620    1.8180   -7.3090 C.3    90  LYS90       0.0206
     63  CE        12.6570    1.6030   -8.4390 C.3    90  LYS90       0.1093
     64  NZ        14.0620    1.5980   -7.9470 N.3    90  LYS90      -0.1314
     65  N          7.0060   -0.3810   -6.8260 N.am   91  SER91      -0.1938
     66  CA         5.7750   -1.0720   -6.4600 C.3    91  SER91       0.2055
     67  C          5.8630   -2.5560   -6.8020 C.2    91  SER91       0.2643
     68  O          6.0790   -2.9270   -7.9550 O.2    91  SER91      -0.2714
     69  CB         4.5790   -0.4420   -7.1780 C.3    91  SER91       0.2130
     70  OG         4.3640    0.8880   -6.7390 O.3    91  SER91      -0.2179
     71  N          5.6950   -3.4010   -5.7900 N.am   92  ASN92      -0.1971
     72  CA         5.7560   -4.8450   -5.9810 C.3    92  ASN92       0.1688
     73  C          4.4500   -5.5070   -5.5510 C.2    92  ASN92       0.2292
     74  O          4.0140   -5.3600   -4.4090 O.2    92  ASN92      -0.2864
     75  CB         6.9240   -5.4370   -5.1900 C.3    92  ASN92       0.1181
     76  CG         6.6470   -6.8520   -4.7200 C.2    92  ASN92       0.2629
     77  OD1        6.7870   -7.1630   -3.5370 O.2    92  ASN92      -0.2716
     78  ND2        6.2520   -7.7160   -5.6470 N.am   92  ASN92      -0.0877
@<TRIPOS>BOND
     1    19    18   ar
     2    20    18   ar
     3    18    17    1
     4    17    16    1
     5    13    16    1
     6    13    12    1
     7    13    14    1
     8    14    15    2
     9    26    27    1
    10    26    25    1
    11    22    21    1
    12    22    25    1
    13    22    23    1
    14    27    28    1
    15    23    24    2
    16    54    53    2
    17    28    29    1
    18    55    53   am
    19    53    52    1
    20    52    51    1
    21    50    49    2
    22    46    45    1
    23    33    32    2
    24    49    48    1
    25    51    48    1
    26    47    48    1
    27    47    43   am
    28    42    45    1
    29    42    43    1
    30    42    41    1
    31    32    41   am
    32    32    31    1
    33    43    44    2
    34    30    31    1
    35    31    34    1
    36    34    35    1
    37    35    36    1
    38    36    37    1
    39    37    38    2
    40    63    64    1
    41    63    62    1
    42    38    40    1
    43    38    39    1
    44    68    67    2
    45    62    61    1
    46    69    70    1
    47    69    66    1
    48    65    66    1
    49    65    58   am
    50    67    66    1
    51    67    71   am
    52    61    60    1
    53    57    56    1
    54    57    58    1
    55    57    60    1
    56    58    59    2
    57    72    71    1
    58    72    73    1
    59    72    75    1
    60    78    76   am
    61    73    74    2
    62    75    76    1
    63    76    77    2
    64     7     8    1
    65     7     3   am
    66     8     9    1
    67     8    11    1
    68     9    10    2
    69     1     2    1
    70     2     3    1
    71     2     5    1
    72     3     4    2
    73     6     5    1
