@<TRIPOS>MOLECULE
tmp/2mowA00.pdb
 157 149 0 0 0
SMALL
GASTEIGER

@<TRIPOS>ATOM
      1  N        -23.6310   -1.2700   14.6200 N.3    21  LYS21      -0.1245
      2  CA       -24.7730   -0.7180   15.3380 C.3    21  LYS21       0.1561
      3  C        -24.3180    0.2810   16.3970 C.2    21  LYS21       0.2260
      4  O        -24.5450    0.0820   17.5900 O.2    21  LYS21      -0.2867
      5  CB       -25.5810   -1.8400   15.9940 C.3    21  LYS21       0.0271
      6  CG       -24.7360   -3.0270   16.4220 C.3    21  LYS21       0.0035
      7  CD       -23.6750   -2.6220   17.4310 C.3    21  LYS21       0.0206
      8  CE       -22.7390   -3.7780   17.7500 C.3    21  LYS21       0.1093
      9  NZ       -23.0390   -4.3840   19.0760 N.3    21  LYS21      -0.1314
     10  N        -21.2030    1.0140   17.1020 N.3    23  GLY23      -0.1210
     11  CA       -20.0680    0.4520   17.8120 C.3    23  GLY23       0.1956
     12  C        -18.8270    1.3140   17.6960 C.2    23  GLY23       0.2612
     13  O        -18.2240    1.6840   18.7040 O.2    23  GLY23      -0.2717
     14  N        -18.4420    1.6310   16.4640 N.am   24  ILE24      -0.1965
     15  CA       -17.2640    2.4540   16.2210 C.3    24  ILE24       0.1727
     16  C        -16.0130    1.8110   16.8110 C.2    24  ILE24       0.2617
     17  O        -15.5610    2.1870   17.8920 O.2    24  ILE24      -0.2715
     18  CB       -17.4300    3.8660   16.8130 C.3    24  ILE24       0.0290
     19  CG1      -18.6900    4.5310   16.2560 C.3    24  ILE24       0.0022
     20  CG2      -16.2020    4.7130   16.5160 C.3    24  ILE24       0.0023
     21  CD1      -19.5110    5.2460   17.3060 C.3    24  ILE24       0.0001
     22  N        -15.4580    0.8410   16.0920 N.am   25  SER25      -0.1936
     23  CA       -14.2600    0.1440   16.5450 C.3    25  SER25       0.2055
     24  C        -13.0020    0.8990   16.1270 C.2    25  SER25       0.2644
     25  O        -12.8560    1.2940   14.9710 O.2    25  SER25      -0.2714
     26  CB       -14.2270   -1.2780   15.9800 C.3    25  SER25       0.2130
     27  OG       -14.8160   -2.1980   16.8820 O.3    25  SER25      -0.2179
     28  N        -12.0940    1.0950   17.0780 N.am   26  GLY26      -0.1939
     29  CA       -10.8590    1.8020   16.7910 C.3    26  GLY26       0.2014
     30  C        -10.0760    1.1640   15.6600 C.2    26  GLY26       0.2640
     31  O         -9.4270    1.8580   14.8770 O.2    26  GLY26      -0.2714
     32  N        -10.1340   -0.1610   15.5760 N.am   27  SER27      -0.1935
     33  CA        -9.4200   -0.8930   14.5360 C.3    27  SER27       0.2055
     34  C         -9.6760   -0.2760   13.1640 C.2    27  SER27       0.2643
     35  O         -8.7410    0.0710   12.4430 O.2    27  SER27      -0.2714
     36  CB        -9.8450   -2.3620   14.5340 C.3    27  SER27       0.2130
     37  OG        -8.7920   -3.1970   14.0820 O.3    27  SER27      -0.2179
     38  N        -10.9510   -0.1430   12.8110 N.am   28  ARG28      -0.1963
     39  CA       -11.3310    0.4300   11.5260 C.3    28  ARG28       0.1729
     40  C        -10.6280    1.7640   11.2960 C.2    28  ARG28       0.2616
     41  O         -9.9540    1.9560   10.2830 O.2    28  ARG28      -0.2715
     42  CB       -12.8470    0.6220   11.4580 C.3    28  ARG28       0.0348
     43  CG       -13.6100   -0.6550   11.1430 C.3    28  ARG28       0.0492
     44  CD       -13.8510   -1.4820   12.3960 C.3    28  ARG28       0.2205
     45  NE       -14.8380   -2.5360   12.1740 N.pl3  28  ARG28      -0.0865
     46  CZ       -14.9710   -3.5960   12.9620 C.cat  28  ARG28       0.5346
     47  NH1      -14.1840   -3.7430   14.0190 N.pl3  28  ARG28       0.1354
     48  NH2      -15.8930   -4.5130   12.6940 N.pl3  28  ARG28       0.1354
     49  N        -10.7890    2.6830   12.2420 N.am   29  ILE29      -0.1963
     50  CA       -10.1700    3.9990   12.1420 C.3    29  ILE29       0.1727
     51  C         -8.6820    3.8830   11.8290 C.2    29  ILE29       0.2616
     52  O         -8.1610    4.5900   10.9660 O.2    29  ILE29      -0.2715
     53  CB       -10.3480    4.8050   13.4430 C.3    29  ILE29       0.0290
     54  CG1      -11.8350    4.9810   13.7590 C.3    29  ILE29       0.0022
     55  CG2       -9.6620    6.1570   13.3260 C.3    29  ILE29       0.0023
     56  CD1      -12.0930    5.7610   15.0290 C.3    29  ILE29       0.0001
     57  N         -8.0020    2.9860   12.5350 N.am   30  LYS30      -0.1977
     58  CA        -6.5740    2.7730   12.3310 C.3    30  LYS30       0.1596
     59  C         -6.2760    2.4400   10.8730 C.2    30  LYS30       0.2287
     60  O         -5.4620    3.1000   10.2280 O.2    30  LYS30      -0.2864
     61  CB        -6.0710    1.6470   13.2370 C.3    30  LYS30       0.0298
     62  CG        -5.5630    2.1300   14.5840 C.3    30  LYS30       0.0038
     63  CD        -4.9980    0.9870   15.4100 C.3    30  LYS30       0.0206
     64  CE        -6.1030    0.1090   15.9770 C.3    30  LYS30       0.1093
     65  NZ        -5.7350   -0.4570   17.3040 N.3    30  LYS30      -0.1314
     66  N         -6.5440    5.3990    8.6580 N.3    33  THR33      -0.1218
     67  CA        -5.4290    6.3080    8.8900 C.3    33  THR33       0.1862
     68  C         -4.1610    5.8070    8.2070 C.2    33  THR33       0.2287
     69  O         -3.7000    6.3900    7.2250 O.2    33  THR33      -0.2866
     70  CB        -5.1520    6.4860   10.3940 C.3    33  THR33       0.1770
     71  OG1       -6.3870    6.6250   11.1060 O.3    33  THR33      -0.2211
     72  CG2       -4.2780    7.7060   10.6430 C.3    33  THR33       0.0375
     73  N        -14.4960   10.8920   14.4340 N.3    67  TYR67      -0.1241
     74  CA       -13.3570   10.1900   15.0150 C.3    67  TYR67       0.1605
     75  C        -12.3420    9.8160   13.9390 C.2    67  TYR67       0.2264
     76  O        -11.1390   10.0210   14.1070 O.2    67  TYR67      -0.2867
     77  CB       -13.8260    8.9330   15.7490 C.3    67  TYR67       0.0534
     78  CG       -14.4890    9.2200   17.0770 C.ar   67  TYR67      -0.0201
     79  CD1      -13.9920   10.2000   17.9270 C.ar   67  TYR67      -0.0009
     80  CD2      -15.6120    8.5090   17.4830 C.ar   67  TYR67      -0.0009
     81  CE1      -14.5940   10.4650   19.1420 C.ar   67  TYR67       0.0417
     82  CE2      -16.2220    8.7680   18.6950 C.ar   67  TYR67       0.0417
     83  CZ       -15.7090    9.7470   19.5210 C.ar   67  TYR67       0.1957
     84  OH       -16.3130   10.0070   20.7300 O.3    67  TYR67      -0.2866
     85  N        -10.4390   12.7200   12.6800 N.3    70  ASP70      -0.1225
     86  CA        -9.5410   13.1610   13.7410 C.3    70  ASP70       0.1805
     87  C         -8.1820   12.4780   13.6210 C.2    70  ASP70       0.2598
     88  O         -7.1490   13.1420   13.5350 O.2    70  ASP70      -0.2718
     89  CB       -10.1540   12.8670   15.1110 C.3    70  ASP70       0.1424
     90  CG        -9.1050   12.7280   16.1970 C.2    70  ASP70       0.3668
     91  OD1       -8.7200   13.7600   16.7860 O.co2  70  ASP70      -0.2456
     92  OD2       -8.6690   11.5870   16.4580 O.co2  70  ASP70      -0.2456
     93  N         -8.1910   11.1490   13.6160 N.am   71  SER71      -0.1952
     94  CA        -6.9590   10.3770   13.5110 C.3    71  SER71       0.1924
     95  C         -6.1740   10.7730   12.2640 C.2    71  SER71       0.2314
     96  O         -5.0030   11.1460   12.3470 O.2    71  SER71      -0.2863
     97  CB        -7.2720    8.8800   13.4760 C.3    71  SER71       0.2116
     98  OG        -6.3330    8.1440   14.2420 O.3    71  SER71      -0.2180
     99  N         -4.6760   14.4350   12.4570 N.3    74  ARG74      -0.1231
    100  CA        -3.4840   14.5210   13.2920 C.3    74  ARG74       0.1694
    101  C         -2.2580   14.0020   12.5450 C.2    74  ARG74       0.2591
    102  O         -1.2700   14.7170   12.3810 O.2    74  ARG74      -0.2718
    103  CB        -3.6820   13.7250   14.5830 C.3    74  ARG74       0.0321
    104  CG        -4.7840   14.2740   15.4740 C.3    74  ARG74       0.0489
    105  CD        -4.5370   13.9380   16.9370 C.3    74  ARG74       0.2205
    106  NE        -5.3270   12.7910   17.3760 N.pl3  74  ARG74      -0.0865
    107  CZ        -4.9340   11.5300   17.2330 C.cat  74  ARG74       0.5346
    108  NH1       -3.7680   11.2560   16.6660 N.pl3  74  ARG74       0.1354
    109  NH2       -5.7090   10.5400   17.6590 N.pl3  74  ARG74       0.1354
    110  N         -2.3310   12.7540   12.0950 N.am   75  ALA75      -0.1980
    111  CA        -1.2290   12.1400   11.3640 C.3    75  ALA75       0.1597
    112  C         -0.8410   12.9770   10.1500 C.2    75  ALA75       0.2287
    113  O          0.3120   13.3860   10.0090 O.2    75  ALA75      -0.2864
    114  CB        -1.6000   10.7280   10.9370 C.3    75  ALA75       0.0319
    115  N        -15.3550   17.6310   23.4990 N.3   126  MET126     -0.1230
    116  CA       -14.0410   17.2420   23.9990 C.3   126  MET126      0.1702
    117  C        -13.0260   17.1710   22.8630 C.2   126  MET126      0.2592
    118  O        -11.9490   17.7620   22.9420 O.2   126  MET126     -0.2718
    119  CB       -14.1220   15.8910   24.7120 C.3   126  MET126      0.0401
    120  CG       -12.9470   14.9750   24.4120 C.3   126  MET126      0.0596
    121  SD       -12.7840   13.6390   25.6130 S.3   126  MET126     -0.1393
    122  CE       -12.0070   14.5030   26.9760 C.3   126  MET126      0.0692
    123  N        -13.3770   16.4440   21.8080 N.am  127  LEU127     -0.1980
    124  CA       -12.4960   16.2960   20.6540 C.3   127  LEU127      0.1596
    125  C        -12.0270   17.6560   20.1480 C.2   127  LEU127      0.2287
    126  O        -10.8420   17.8560   19.8800 O.2   127  LEU127     -0.2864
    127  CB       -13.2130   15.5410   19.5340 C.3   127  LEU127      0.0297
    128  CG       -12.4930   15.4980   18.1860 C.3   127  LEU127      0.0022
    129  CD1      -11.3400   14.5060   18.2280 C.3   127  LEU127      0.0001
    130  CD2      -13.4660   15.1400   17.0720 C.3   127  LEU127      0.0001
    131  N        -11.7560   20.4980   21.7330 N.3   129  ASP129     -0.1225
    132  CA       -10.8000   21.0700   22.6740 C.3   129  ASP129      0.1805
    133  C         -9.3950   20.5360   22.4130 C.2   129  ASP129      0.2597
    134  O         -8.4440   21.3060   22.2750 O.2   129  ASP129     -0.2718
    135  CB       -11.2190   20.7570   24.1120 C.3   129  ASP129      0.1424
    136  CG       -10.1000   20.9990   25.1060 C.2   129  ASP129      0.3668
    137  OD1       -9.5910   22.1380   25.1610 O.co2 129  ASP129     -0.2456
    138  OD2       -9.7340   20.0490   25.8290 O.co2 129  ASP129     -0.2456
    139  N         -9.2720   19.2150   22.3480 N.am  130  ILE130     -0.1980
    140  CA        -7.9830   18.5790   22.1030 C.3   130  ILE130      0.1595
    141  C         -7.3620   19.0790   20.8030 C.2   130  ILE130      0.2287
    142  O         -6.1590   19.3340   20.7370 O.2   130  ILE130     -0.2864
    143  CB        -8.1150   17.0460   22.0400 C.3   130  ILE130      0.0276
    144  CG1       -8.5670   16.4950   23.3940 C.3   130  ILE130      0.0022
    145  CG2       -6.7940   16.4180   21.6210 C.3   130  ILE130      0.0022
    146  CD1       -9.1190   15.0890   23.3200 C.3   130  ILE130      0.0001
    147  N         -5.8820   22.5590   21.2620 N.3   133  ARG133     -0.1245
    148  CA        -4.7230   22.4050   22.1340 C.3   133  ARG133      0.1563
    149  C         -3.5350   21.8360   21.3640 C.2   133  ARG133      0.2260
    150  O         -2.4600   22.4350   21.3290 O.2   133  ARG133     -0.2867
    151  CB        -5.0640   21.4940   23.3140 C.3   133  ARG133      0.0307
    152  CG        -5.5960   22.2410   24.5260 C.3   133  ARG133      0.0489
    153  CD        -5.2600   21.5150   25.8200 C.3   133  ARG133      0.2205
    154  NE        -5.0770   22.4390   26.9350 N.pl3 133  ARG133     -0.0865
    155  CZ        -6.0740   23.1030   27.5100 C.cat 133  ARG133      0.5346
    156  NH1       -7.3170   22.9440   27.0780 N.pl3 133  ARG133      0.1354
    157  NH2       -5.8280   23.9270   28.5210 N.pl3 133  ARG133      0.1354
@<TRIPOS>BOND
     1    69    68    2
     2    68    67    1
     3    66    67    1
     4    67    70    1
     5   113   112    2
     6   112   111    1
     7    60    59    2
     8    41    40    2
     9    70    72    1
    10    70    71    1
    11    59    58    1
    12   114   111    1
    13    52    51    2
    14    43    42    1
    15    43    44    1
    16    40    39    1
    17    40    49   am
    18   111   110    1
    19    42    39    1
    20    39    38    1
    21    51    50    1
    22    51    57   am
    23   110   101   am
    24    50    49    1
    25    50    53    1
    26    45    44    1
    27    45    46    2
    28    95    96    2
    29    95    94    1
    30    58    57    1
    31    58    61    1
    32   102   101    2
    33    35    34    2
    34    99   100    1
    35   101   100    1
    36    85    86    1
    37    48    46    1
    38    38    34   am
    39    46    47    1
    40    34    33    1
    41    61    62    1
    42   100   103    1
    43    55    53    1
    44    53    54    1
    45    97    94    1
    46    97    98    1
    47    94    93    1
    48    88    87    2
    49    93    87   am
    50    87    86    1
    51    86    89    1
    52    54    56    1
    53    75    76    2
    54    75    74    1
    55    37    36    1
    56    73    74    1
    57    36    33    1
    58    33    32    1
    59   103   104    1
    60    62    63    1
    61     1     2    1
    62    31    30    2
    63    25    24    2
    64    74    77    1
    65    89    90    1
    66     2     5    1
    67     2     3    1
    68    63    64    1
    69   104   105    1
    70    32    30   am
    71    30    29    1
    72    77    78    1
    73    64    65    1
    74    26    23    1
    75    26    27    1
    76     5     6    1
    77    22    23    1
    78    22    16   am
    79    24    23    1
    80    24    28   am
    81    90    92   ar
    82    90    91   ar
    83    15    14    1
    84    15    16    1
    85    15    18    1
    86    19    18    1
    87    19    21    1
    88     3     4    2
    89     6     7    1
    90    14    12   am
    91    20    18    1
    92   108   107    1
    93    29    28    1
    94    16    17    2
    95   105   106    1
    96   130   128    1
    97    78    80   ar
    98    78    79   ar
    99    10    11    1
   100   107   106    2
   101   107   109    1
   102     7     8    1
   103    80    82   ar
   104    12    11    1
   105    12    13    2
   106     8     9    1
   107    79    81   ar
   108   128   129    1
   109   128   127    1
   110    82    83   ar
   111    81    83   ar
   112    83    84    1
   113   127   124    1
   114   126   125    2
   115   125   124    1
   116   124   123    1
   117   142   141    2
   118   141   140    1
   119   147   148    1
   120   150   149    2
   121   149   148    1
   122   145   143    1
   123   131   132    1
   124   123   117   am
   125   143   140    1
   126   143   144    1
   127   140   139    1
   128   148   151    1
   129   134   133    2
   130   139   133   am
   131   133   132    1
   132   132   135    1
   133   117   118    2
   134   117   116    1
   135   151   152    1
   136   146   144    1
   137   115   116    1
   138   116   119    1
   139   135   136    1
   140   120   119    1
   141   120   121    1
   142   152   153    1
   143   136   137   ar
   144   136   138   ar
   145   121   122    1
   146   153   154    1
   147   154   155    2
   148   156   155    1
   149   155   157    1
