@<TRIPOS>MOLECULE
tmp/2mprB00.pdb
 166 160 0 0 0
SMALL
GASTEIGER

@<TRIPOS>ATOM
      1  N          7.3470   76.1140   60.1550 N.3     5  GLY5       -0.1210
      2  CA         7.5950   76.0100   61.5750 C.3     5  GLY5        0.1956
      3  C          9.0470   76.0950   61.9810 C.2     5  GLY5        0.2611
      4  O          9.8900   76.5980   61.2410 O.2     5  GLY5       -0.2717
      5  N          9.3280   75.5840   63.1740 N.am    6  TYR6       -0.1976
      6  CA        10.6690   75.5770   63.7360 C.3     6  TYR6        0.1639
      7  C         10.7120   74.3870   64.6740 C.2     6  TYR6        0.2290
      8  O          9.6970   74.0070   65.2510 O.2     6  TYR6       -0.2864
      9  CB        10.9300   76.8660   64.5340 C.3     6  TYR6        0.0560
     10  CG        12.1960   76.8170   65.3910 C.ar    6  TYR6       -0.0198
     11  CD1       12.1680   76.2800   66.6800 C.ar    6  TYR6       -0.0009
     12  CD2       13.4320   77.2030   64.8730 C.ar    6  TYR6       -0.0009
     13  CE1       13.3320   76.1120   67.4030 C.ar    6  TYR6        0.0417
     14  CE2       14.5930   77.0430   65.5940 C.ar    6  TYR6        0.0417
     15  CZ        14.5400   76.4880   66.8510 C.ar    6  TYR6        0.1957
     16  OH        15.7040   76.2460   67.5400 O.3     6  TYR6       -0.2866
     17  N         13.7690   72.0590   67.2960 N.3     8  ARG8       -0.1245
     18  CA        15.1170   71.7140   67.7240 C.3     8  ARG8        0.1563
     19  C         14.9290   70.5150   68.6370 C.2     8  ARG8        0.2260
     20  O         13.9220   70.4340   69.3360 O.2     8  ARG8       -0.2867
     21  CB        15.8140   72.8460   68.4610 C.3     8  ARG8        0.0307
     22  CG        15.1590   73.2980   69.7350 C.3     8  ARG8        0.0489
     23  CD        16.1340   74.1420   70.5180 C.3     8  ARG8        0.2205
     24  NE        15.4860   74.8120   71.6300 N.pl3   8  ARG8       -0.0865
     25  CZ        14.8500   75.9740   71.5250 C.cat   8  ARG8        0.5346
     26  NH1       14.7790   76.5930   70.3560 N.pl3   8  ARG8        0.1354
     27  NH2       14.2820   76.5170   72.5870 N.pl3   8  ARG8        0.1354
     28  N         23.2150   80.0490   72.7750 N.3    33  ARG33      -0.1245
     29  CA        22.6090   78.7680   72.4580 C.3    33  ARG33       0.1563
     30  C         23.3510   77.5990   71.8400 C.2    33  ARG33       0.2260
     31  O         23.0330   76.4670   72.1730 O.2    33  ARG33      -0.2867
     32  CB        21.3150   78.9880   71.7020 C.3    33  ARG33       0.0307
     33  CG        21.4870   79.5300   70.3090 C.3    33  ARG33       0.0489
     34  CD        20.3370   79.0260   69.4840 C.3    33  ARG33       0.2205
     35  NE        19.3820   80.0600   69.1410 N.pl3  33  ARG33      -0.0865
     36  CZ        18.0850   79.8470   68.9660 C.cat  33  ARG33       0.5346
     37  NH1       17.5650   78.6410   69.1150 N.pl3  33  ARG33       0.1354
     38  NH2       17.3250   80.8360   68.5400 N.pl3  33  ARG33       0.1354
     39  N         11.9210   71.7320   71.2780 N.3    41  TYR41      -0.1241
     40  CA        10.9080   72.7490   71.0990 C.3    41  TYR41       0.1605
     41  C         10.4990   72.7120   69.6380 C.2    41  TYR41       0.2264
     42  O         11.3570   72.6390   68.7580 O.2    41  TYR41      -0.2867
     43  CB        11.4600   74.1300   71.4410 C.3    41  TYR41       0.0534
     44  CG        10.4280   75.2250   71.2490 C.ar   41  TYR41      -0.0201
     45  CD1        9.4320   75.4410   72.2000 C.ar   41  TYR41      -0.0009
     46  CD2       10.4010   75.9970   70.0820 C.ar   41  TYR41      -0.0009
     47  CE1        8.4370   76.3900   72.0000 C.ar   41  TYR41       0.0417
     48  CE2        9.4030   76.9420   69.8780 C.ar   41  TYR41       0.0417
     49  CZ         8.4250   77.1340   70.8410 C.ar   41  TYR41       0.1957
     50  OH         7.4430   78.0810   70.6590 O.3    41  TYR41      -0.2866
     51  N          7.3950   74.2840   66.6890 N.3    43  GLU43      -0.1245
     52  CA         6.2030   75.0440   66.3220 C.3    43  GLU43       0.1567
     53  C          5.7600   74.4760   64.9780 C.2    43  GLU43       0.2260
     54  O          6.5540   74.4070   64.0350 O.2    43  GLU43      -0.2867
     55  CB         6.5100   76.5250   66.1640 C.3    43  GLU43       0.0388
     56  CG         6.8360   77.2180   67.4550 C.3    43  GLU43       0.1160
     57  CD         7.1230   78.6810   67.2760 C.2    43  GLU43       0.3649
     58  OE1        7.0640   79.1830   66.1390 O.co2  43  GLU43      -0.2457
     59  OE2        7.4080   79.3460   68.2900 O.co2  43  GLU43      -0.2457
     60  N         -0.5730   79.3530   69.8260 N.3    82  ARG82      -0.1245
     61  CA        -0.0690   80.7180   69.7050 C.3    82  ARG82       0.1563
     62  C         -0.5370   81.6200   68.5820 C.2    82  ARG82       0.2260
     63  O         -0.4930   82.8440   68.7210 O.2    82  ARG82      -0.2867
     64  CB         1.4600   80.7010   69.7730 C.3    82  ARG82       0.0307
     65  CG         1.9680   79.9040   70.9640 C.3    82  ARG82       0.0489
     66  CD         3.4750   79.8700   71.0560 C.3    82  ARG82       0.2205
     67  NE         3.9860   81.1920   71.3490 N.pl3  82  ARG82      -0.0865
     68  CZ         5.2750   81.4840   71.4100 C.cat  82  ARG82       0.5346
     69  NH1        6.1850   80.5460   71.1980 N.pl3  82  ARG82       0.1354
     70  NH2        5.6480   82.7180   71.6970 N.pl3  82  ARG82       0.1354
     71  N          2.0810   86.3550   65.6370 N.3   106  PHE106     -0.1241
     72  CA         3.4430   86.7570   65.9510 C.3   106  PHE106      0.1605
     73  C          3.5930   88.0220   65.0830 C.2   106  PHE106      0.2264
     74  O          3.7590   87.9400   63.8690 O.2   106  PHE106     -0.2867
     75  CB         4.4590   85.7130   65.4780 C.3   106  PHE106      0.0534
     76  CG         4.5560   84.4910   66.3530 C.ar  106  PHE106     -0.0203
     77  CD1        3.8880   84.4240   67.5690 C.ar  106  PHE106     -0.0042
     78  CD2        5.3440   83.4140   65.9600 C.ar  106  PHE106     -0.0042
     79  CE1        4.0090   83.3080   68.3710 C.ar  106  PHE106     -0.0003
     80  CE2        5.4720   82.2870   66.7580 C.ar  106  PHE106     -0.0003
     81  CZ         4.8060   82.2300   67.9670 C.ar  106  PHE106     -0.0000
     82  N          8.1860   90.4880   64.9060 N.3   109  ARG109     -0.1245
     83  CA         9.1520   90.2600   65.9690 C.3   109  ARG109      0.1563
     84  C         10.5870   90.5300   65.5090 C.2   109  ARG109      0.2260
     85  O         10.9320   90.2640   64.3590 O.2   109  ARG109     -0.2867
     86  CB         9.0220   88.8040   66.4610 C.3   109  ARG109      0.0307
     87  CG         7.5990   88.4190   66.8850 C.3   109  ARG109      0.0489
     88  CD         7.5440   87.0310   67.4660 C.3   109  ARG109      0.2205
     89  NE         8.0370   86.0170   66.5400 N.pl3 109  ARG109     -0.0865
     90  CZ         8.2700   84.7470   66.8720 C.cat 109  ARG109      0.5346
     91  NH1        8.0540   84.3340   68.1100 N.pl3 109  ARG109      0.1354
     92  NH2        8.7300   83.8930   65.9700 N.pl3 109  ARG109      0.1354
     93  N         14.5830   89.7800   66.7280 N.3   111  ASP111     -0.1239
     94  CA        15.3640   88.9820   67.6630 C.3   111  ASP111      0.1674
     95  C         16.8110   88.8220   67.2220 C.2   111  ASP111      0.2266
     96  O         17.1450   89.1490   66.0970 O.2   111  ASP111     -0.2867
     97  CB        14.7410   87.5900   67.7750 C.3   111  ASP111      0.1410
     98  CG        14.9580   86.7500   66.5240 C.2   111  ASP111      0.3668
     99  OD1       14.4650   87.1390   65.4400 O.co2 111  ASP111     -0.2456
    100  OD2       15.6450   85.7110   66.6220 O.co2 111  ASP111     -0.2456
    101  N         19.3160   85.8590   66.7570 N.3   113  HIS113     -0.1241
    102  CA        19.3610   84.4130   66.7430 C.3   113  HIS113      0.1621
    103  C         20.3030   83.7160   67.7020 C.2   113  HIS113      0.2264
    104  O         19.8720   82.8390   68.4560 O.2   113  HIS113     -0.2867
    105  CB        19.6010   83.8580   65.3320 C.3   113  HIS113      0.0745
    106  CG        19.7320   82.3640   65.3010 C.ar  113  HIS113      0.0817
    107  ND1       18.6490   81.5140   65.3930 N.ar  113  HIS113     -0.2268
    108  CD2       20.8270   81.5680   65.2930 C.ar  113  HIS113      0.1154
    109  CE1       19.0700   80.2650   65.4510 C.ar  113  HIS113      0.1986
    110  NE2       20.3880   80.2710   65.3920 N.ar  113  HIS113     -0.2212
    111  N         19.0800   83.7590   71.1090 N.3   116  ASP116     -0.1239
    112  CA        17.6400   83.4990   71.1090 C.3   116  ASP116      0.1674
    113  C         16.9210   84.5730   71.9050 C.2   116  ASP116      0.2266
    114  O         16.0020   84.2830   72.6560 O.2   116  ASP116     -0.2867
    115  CB        17.3670   82.1210   71.7030 C.3   116  ASP116      0.1410
    116  CG        15.9830   81.5980   71.3700 C.2   116  ASP116      0.3668
    117  OD1       15.2530   82.2350   70.5700 O.co2 116  ASP116     -0.2456
    118  OD2       15.6250   80.5350   71.9140 O.co2 116  ASP116     -0.2456
    119  N         14.6230   88.0100   71.9160 N.3   118  TYR118     -0.1241
    120  CA        13.6850   88.8810   71.2120 C.3   118  TYR118      0.1605
    121  C         13.7220   90.2510   71.8780 C.2   118  TYR118      0.2264
    122  O         13.5770   90.3570   73.0920 O.2   118  TYR118     -0.2867
    123  CB        12.2640   88.3000   71.2850 C.3   118  TYR118      0.0534
    124  CG        12.0410   87.1470   70.3400 C.ar  118  TYR118     -0.0201
    125  CD1       12.5840   85.8950   70.5960 C.ar  118  TYR118     -0.0009
    126  CD2       11.3670   87.3300   69.1440 C.ar  118  TYR118     -0.0009
    127  CE1       12.4720   84.8660   69.6820 C.ar  118  TYR118      0.0417
    128  CE2       11.2490   86.3060   68.2240 C.ar  118  TYR118      0.0417
    129  CZ        11.8040   85.0830   68.4970 C.ar  118  TYR118      0.1957
    130  OH        11.7070   84.0840   67.5690 O.3   118  TYR118     -0.2866
    131  N          8.8830   92.4530   70.6330 N.3   121  ASP121     -0.1239
    132  CA         7.9070   91.3990   70.4550 C.3   121  ASP121      0.1674
    133  C          6.6280   91.6790   71.2150 C.2   121  ASP121      0.2266
    134  O          6.5380   91.4190   72.4200 O.2   121  ASP121     -0.2867
    135  CB         8.5300   90.0830   70.9290 C.3   121  ASP121      0.1410
    136  CG         7.5590   88.9070   70.8920 C.2   121  ASP121      0.3668
    137  OD1        6.4990   88.9980   70.2540 O.co2 121  ASP121     -0.2456
    138  OD2        7.8690   87.8770   71.5080 O.co2 121  ASP121     -0.2456
    139  N         23.0300   80.5380   58.0180 N.3   362  TRP362     -0.1241
    140  CA        21.5760   80.5290   58.1820 C.3   362  TRP362      0.1605
    141  C         20.8960   79.2980   57.5580 C.2   362  TRP362      0.2264
    142  O         19.6750   79.2010   57.5530 O.2   362  TRP362     -0.2867
    143  CB        20.9710   81.7640   57.5230 C.3   362  TRP362      0.0550
    144  CG        21.3000   83.0650   58.1820 C.ar  362  TRP362      0.0003
    145  CD1       22.0690   84.0670   57.6690 C.ar  362  TRP362      0.0946
    146  CD2       20.8090   83.5420   59.4460 C.ar  362  TRP362      0.0152
    147  NE1       22.0810   85.1390   58.5230 N.ar  362  TRP362     -0.2442
    148  CE2       21.3190   84.8460   59.6230 C.ar  362  TRP362      0.0810
    149  CE3       19.9870   82.9960   60.4410 C.ar  362  TRP362      0.0012
    150  CZ2       21.0330   85.6150   60.7560 C.ar  362  TRP362      0.0191
    151  CZ3       19.7020   83.7620   61.5660 C.ar  362  TRP362      0.0001
    152  CH2       20.2250   85.0580   61.7130 C.ar  362  TRP362      0.0015
    153  N         14.1450   75.1910   60.4710 N.3   420  TRP420     -0.1241
    154  CA        13.0110   76.0770   60.2900 C.3   420  TRP420      0.1605
    155  C         12.6440   75.8260   58.8350 C.2   420  TRP420      0.2264
    156  O         13.5090   75.5500   58.0030 O.2   420  TRP420     -0.2867
    157  CB        13.2650   77.5470   60.6410 C.3   420  TRP420      0.0550
    158  CG        14.4940   78.1730   60.1250 C.ar  420  TRP420      0.0003
    159  CD1       14.7770   78.4790   58.8250 C.ar  420  TRP420      0.0946
    160  CD2       15.5960   78.6720   60.9050 C.ar  420  TRP420      0.0152
    161  NE1       15.9790   79.1400   58.7480 N.ar  420  TRP420     -0.2442
    162  CE2       16.5030   79.2730   60.0070 C.ar  420  TRP420      0.0810
    163  CE3       15.9020   78.6690   62.2760 C.ar  420  TRP420      0.0012
    164  CZ2       17.7000   79.8680   60.4350 C.ar  420  TRP420      0.0191
    165  CZ3       17.0920   79.2600   62.6970 C.ar  420  TRP420      0.0001
    166  CH2       17.9740   79.8510   61.7780 C.ar  420  TRP420      0.0015
@<TRIPOS>BOND
     1   143   140    1
     2   143   144    1
     3   142   141    2
     4   141   140    1
     5   145   144   ar
     6   145   147   ar
     7   156   155    2
     8   139   140    1
     9   144   146   ar
    10   147   148   ar
    11   161   159   ar
    12   161   162   ar
    13   159   158   ar
    14   155   154    1
    15   146   148   ar
    16   146   149   ar
    17   148   150   ar
    18   162   164   ar
    19   162   160   ar
    20   158   157    1
    21   158   160   ar
    22     1     2    1
    23   154   153    1
    24   154   157    1
    25   164   166   ar
    26   149   151   ar
    27   150   152   ar
    28   160   163   ar
    29     4     3    2
    30   151   152   ar
    31     2     3    1
    32   166   165   ar
    33     3     5   am
    34   163   165   ar
    35     5     6    1
    36     6     9    1
    37     6     7    1
    38    74    73    2
    39    54    53    2
    40    85    84    2
    41     9    10    1
    42     7     8    2
    43    12    10   ar
    44    12    14   ar
    45    82    83    1
    46    53    52    1
    47    73    72    1
    48   108   106   ar
    49   108   110   ar
    50   106   105    1
    51   106   107   ar
    52   105   102    1
    53    10    11   ar
    54   110   109   ar
    55   107   109   ar
    56    99    98   ar
    57    75    72    1
    58    75    76    1
    59    84    83    1
    60    14    15   ar
    61    71    72    1
    62    78    76   ar
    63    78    80   ar
    64    83    86    1
    65    92    90    1
    66    96    95    2
    67    58    57   ar
    68    55    52    1
    69    55    56    1
    70    52    51    1
    71    76    77   ar
    72    86    87    1
    73    98   100   ar
    74    98    97    1
    75    89    90    2
    76    89    88    1
    77    11    13   ar
    78    93    94    1
    79   102   101    1
    80   102   103    1
    81    80    81   ar
    82    15    13   ar
    83    15    16    1
    84    90    91    1
    85    87    88    1
    86    95    94    1
    87    57    56    1
    88    57    59   ar
    89    17    18    1
    90    77    79   ar
    91   130   129    1
    92    94    97    1
    93   103   104    2
    94    18    21    1
    95    18    19    1
    96    81    79   ar
    97   128   129   ar
    98   128   126   ar
    99    21    22    1
   100   129   127   ar
   101    38    36    1
   102    62    63    2
   103    62    61    1
   104    19    20    2
   105    42    41    2
   106    36    37    1
   107    36    35    2
   108    35    34    1
   109   126   124   ar
   110    34    33    1
   111    41    40    1
   112   127   125   ar
   113    61    64    1
   114    61    60    1
   115    22    23    1
   116    64    65    1
   117    48    46   ar
   118    48    49   ar
   119    46    44   ar
   120   137   136   ar
   121    33    32    1
   122   124   125   ar
   123   124   123    1
   124    26    25    1
   125   132   131    1
   126   132   135    1
   127   132   133    1
   128    23    24    1
   129   117   116   ar
   130    50    49    1
   131    49    47   ar
   132   136   135    1
   133   136   138   ar
   134    65    66    1
   135    66    67    1
   136    40    39    1
   137    40    43    1
   138   111   112    1
   139   112   115    1
   140   112   113    1
   141    69    68    1
   142   120   123    1
   143   120   121    1
   144   120   119    1
   145   133   134    2
   146    44    43    1
   147    44    45   ar
   148    67    68    2
   149   116   115    1
   150   116   118   ar
   151    68    70    1
   152    25    24    2
   153    25    27    1
   154    32    29    1
   155    30    31    2
   156    30    29    1
   157   121   122    2
   158   113   114    2
   159    47    45   ar
   160    29    28    1
