@<TRIPOS>MOLECULE
tmp/2ms4A00.pdb
 163 158 0 0 0
SMALL
GASTEIGER

@<TRIPOS>ATOM
      1  N          6.0780    2.3090   -8.1960 N.3    55  ARG55      -0.1245
      2  CA         5.0300    3.0020   -8.9700 C.3    55  ARG55       0.1563
      3  C          4.4110    4.1040   -8.1030 C.2    55  ARG55       0.2260
      4  O          3.5950    3.8260   -7.2330 O.2    55  ARG55      -0.2867
      5  CB         3.9490    1.9900   -9.4430 C.3    55  ARG55       0.0307
      6  CG         2.8570    2.6030  -10.3580 C.3    55  ARG55       0.0489
      7  CD         1.7300    1.6010  -10.6720 C.3    55  ARG55       0.2205
      8  NE         0.7290    2.1420  -11.6150 N.pl3  55  ARG55      -0.0865
      9  CZ        -0.5190    2.5330  -11.3000 C.cat  55  ARG55       0.5346
     10  NH1       -0.9640    2.4820  -10.0480 N.pl3  55  ARG55       0.1354
     11  NH2       -1.3370    2.9330  -12.2580 N.pl3  55  ARG55       0.1354
     12  N          2.8610    8.3140   -8.2400 N.3    57  ILE57      -0.1231
     13  CA         2.3870    9.5060   -8.9650 C.3    57  ILE57       0.1678
     14  C          2.1430   10.6610   -7.9490 C.2    57  ILE57       0.2434
     15  O          1.3360   10.4910   -7.0140 O.2    57  ILE57      -0.2733
     16  CB         1.0560    9.1970   -9.7570 C.3    57  ILE57       0.0265
     17  CG1        1.2670    8.0120  -10.7600 C.3    57  ILE57       0.0019
     18  CG2        0.5250   10.4640  -10.4820 C.3    57  ILE57       0.0020
     19  CD1        0.0240    7.5920  -11.5290 C.3    57  ILE57       0.0001
     20  N          2.8500   11.8460   -8.1000 N.am   58  PRO58      -0.2718
     21  CA         2.6350   13.0310   -7.2380 C.3    58  PRO58       0.1535
     22  C          1.2230   13.6280   -7.4030 C.2    58  PRO58       0.2599
     23  O          0.6910   13.7190   -8.5220 O.2    58  PRO58      -0.2715
     24  CB         3.7470   14.0270   -7.6800 C.3    58  PRO58       0.0310
     25  CG         4.1200   13.5960   -9.0650 C.3    58  PRO58       0.0237
     26  CD         3.9280   12.0930   -9.0910 C.3    58  PRO58       0.0939
     27  N          0.6370   14.0280   -6.2590 N.am   59  GLY59      -0.1941
     28  CA        -0.7340   14.5350   -6.1930 C.3    59  GLY59       0.2014
     29  C         -1.7870   13.4310   -6.2770 C.2    59  GLY59       0.2639
     30  O         -2.9410   13.7090   -6.6240 O.2    59  GLY59      -0.2714
     31  N         -1.3990   12.1760   -5.9490 N.am   60  PHE60      -0.1959
     32  CA        -2.2890   11.0030   -6.0740 C.3    60  PHE60       0.1771
     33  C         -1.9570    9.9310   -5.0160 C.2    60  PHE60       0.2619
     34  O         -2.6650    9.8250   -4.0000 O.2    60  PHE60      -0.2715
     35  CB        -2.2270   10.4350   -7.5360 C.3    60  PHE60       0.0574
     36  CG        -2.9420    9.0960   -7.7790 C.ar   60  PHE60      -0.0200
     37  CD1       -4.2630    8.9020   -7.3840 C.ar   60  PHE60      -0.0042
     38  CD2       -2.3010    8.0440   -8.4370 C.ar   60  PHE60      -0.0042
     39  CE1       -4.9140    7.7050   -7.6260 C.ar   60  PHE60      -0.0003
     40  CE2       -2.9520    6.8510   -8.6780 C.ar   60  PHE60      -0.0003
     41  CZ        -4.2570    6.6810   -8.2700 C.ar   60  PHE60      -0.0000
     42  N         -0.8670    9.1580   -5.2280 N.am   61  MET61      -0.1977
     43  CA        -0.6590    7.8880   -4.4960 C.3    61  MET61       0.1605
     44  C          0.7730    7.3370   -4.6820 C.2    61  MET61       0.2287
     45  O          1.3540    7.4540   -5.7630 O.2    61  MET61      -0.2864
     46  CB        -1.7440    6.8620   -4.9790 C.3    61  MET61       0.0413
     47  CG        -1.6150    5.4270   -4.4550 C.3    61  MET61       0.0598
     48  SD        -0.3650    4.4650   -5.3320 S.3    61  MET61      -0.1393
     49  CE        -1.0720    4.3030   -6.9690 C.3    61  MET61       0.0692
     50  N          2.6760    3.7110   -4.4510 N.3    63  GLN63      -0.1245
     51  CA         2.3920    2.2520   -4.4810 C.3    63  GLN63       0.1566
     52  C          3.6830    1.4170   -4.3810 C.2    63  GLN63       0.2260
     53  O          4.6270    1.6040   -5.1700 O.2    63  GLN63      -0.2867
     54  CB         1.5780    1.8860   -5.7710 C.3    63  GLN63       0.0367
     55  CG         1.6940    0.4260   -6.2650 C.3    63  GLN63       0.0905
     56  CD         0.6450    0.0400   -7.3080 C.2    63  GLN63       0.2608
     57  OE1        0.0570    0.8890   -7.9760 O.2    63  GLN63      -0.2717
     58  NE2        0.4490   -1.2480   -7.5000 N.am   63  GLN63      -0.0878
     59  N          6.6470  -10.2210  -10.7870 N.3    70  HIS70      -0.1241
     60  CA         6.4000   -8.7680  -10.9460 C.3    70  HIS70       0.1621
     61  C          5.3950   -8.4720  -12.0870 C.2    70  HIS70       0.2264
     62  O          4.5880   -7.5400  -11.9860 O.2    70  HIS70      -0.2867
     63  CB         7.7300   -7.9980  -11.1680 C.3    70  HIS70       0.0745
     64  CG         7.5260   -6.5190  -11.4260 C.ar   70  HIS70       0.0817
     65  ND1        7.6860   -5.9420  -12.6690 N.ar   70  HIS70      -0.2268
     66  CD2        7.1130   -5.5200  -10.6030 C.ar   70  HIS70       0.1154
     67  CE1        7.3680   -4.6630  -12.6000 C.ar   70  HIS70       0.1986
     68  NE2        7.0180   -4.3840  -11.3600 N.ar   70  HIS70      -0.2212
     69  N          2.1750   -8.6380  -13.8450 N.3    72  GLY72      -0.1210
     70  CA         0.7440   -8.8940  -13.6420 C.3    72  GLY72       0.1956
     71  C          0.3010   -9.1180  -12.1950 C.2    72  GLY72       0.2612
     72  O         -0.9070   -9.2290  -11.9400 O.2    72  GLY72      -0.2717
     73  N          1.2550   -9.2030  -11.2500 N.am   73  THR73      -0.1952
     74  CA         0.9540   -9.4000   -9.8200 C.3    73  THR73       0.1897
     75  C          1.9700   -8.5980   -8.9600 C.2    73  THR73       0.2313
     76  O          1.6750   -7.4690   -8.5410 O.2    73  THR73      -0.2863
     77  CB         0.9550  -10.9330   -9.4440 C.3    73  THR73       0.1794
     78  OG1        0.1260  -11.6750  -10.3530 O.3    73  THR73      -0.2208
     79  CG2        0.4540  -11.1760   -8.0140 C.3    73  THR73       0.0378
     80  N         -3.1830   -3.1840   -3.9710 N.3   101  ALA101     -0.1231
     81  CA        -3.4100   -2.7820   -5.3690 C.3   101  ALA101      0.1694
     82  C         -4.1630   -3.8720   -6.1460 C.2   101  ALA101      0.2592
     83  O         -4.1550   -5.0600   -5.7680 O.2   101  ALA101     -0.2718
     84  CB        -2.0830   -2.4130   -6.0370 C.3   101  ALA101      0.0304
     85  N         -4.8330   -3.4420   -7.2170 N.am  102  ASN102     -0.1960
     86  CA        -5.7230   -4.2980   -8.0020 C.3   102  ASN102      0.1819
     87  C         -5.9800   -3.6890   -9.3780 C.2   102  ASN102      0.2621
     88  O         -5.7240   -2.5000   -9.6070 O.2   102  ASN102     -0.2715
     89  CB        -7.0820   -4.4940   -7.2670 C.3   102  ASN102      0.1195
     90  CG        -7.9190   -3.2110   -7.1160 C.2   102  ASN102      0.2630
     91  OD1       -7.3990   -2.1130   -6.8980 O.2   102  ASN102     -0.2716
     92  ND2       -9.2310   -3.3400   -7.2390 N.am  102  ASN102     -0.0877
     93  N         -6.4940   -4.5200  -10.2880 N.am  103  ALA103     -0.1977
     94  CA        -7.0130   -4.0690  -11.5870 C.3   103  ALA103      0.1597
     95  C         -8.5450   -3.9050  -11.5250 C.2   103  ALA103      0.2287
     96  O         -9.1430   -3.2780  -12.4030 O.2   103  ALA103     -0.2864
     97  CB        -6.5940   -5.0520  -12.6850 C.3   103  ALA103      0.0319
     98  N         -9.7470   -9.0720   -8.3150 N.3   107  THR107     -0.1218
     99  CA        -8.3720   -8.9230   -8.8200 C.3   107  THR107      0.1862
    100  C         -7.5010   -8.1980   -7.7600 C.2   107  THR107      0.2287
    101  O         -6.4070   -7.7010   -8.0460 O.2   107  THR107     -0.2866
    102  CB        -8.3830   -8.1570  -10.1950 C.3   107  THR107      0.1770
    103  OG1       -9.4530   -8.6590  -11.0270 O.3   107  THR107     -0.2211
    104  CG2       -7.0610   -8.3160  -10.9690 C.3   107  THR107      0.0375
    105  N         -2.6390   -8.0470   -5.0910 N.3   110  SER110     -0.1202
    106  CA        -1.3830   -7.9160   -5.8310 C.3   110  SER110      0.2020
    107  C         -0.8220   -6.5080   -5.5780 C.2   110  SER110      0.2618
    108  O         -1.4660   -5.5310   -5.9430 O.2   110  SER110     -0.2717
    109  CB        -1.6640   -8.1590   -7.3320 C.3   110  SER110      0.2103
    110  OG        -2.7920   -7.4110   -7.7820 O.3   110  SER110     -0.2182
    111  N          0.3870   -6.4240   -4.9660 N.am  111  GLN111     -0.1979
    112  CA         1.0030   -5.1460   -4.5020 C.3   111  GLN111      0.1601
    113  C          0.1290   -4.4370   -3.4300 C.2   111  GLN111      0.2287
    114  O         -0.8780   -4.9830   -2.9610 O.2   111  GLN111     -0.2864
    115  CB         1.2740   -4.1790   -5.6950 C.3   111  GLN111      0.0394
    116  CG         2.2820   -4.6920   -6.7270 C.3   111  GLN111      0.0908
    117  CD         2.3890   -3.7860   -7.9470 C.2   111  GLN111      0.2608
    118  OE1        3.1760   -2.8390   -7.9650 O.2   111  GLN111     -0.2717
    119  NE2        1.5990   -4.0590   -8.9750 N.am  111  GLN111     -0.0878
    120  N         -0.9210    0.0130   -2.2130 N.3   113  PHE113     -0.1241
    121  CA        -0.8510    1.4390   -2.5310 C.3   113  PHE113      0.1605
    122  C         -1.2660    2.2590   -1.3070 C.2   113  PHE113      0.2264
    123  O         -2.1090    1.8240   -0.5120 O.2   113  PHE113     -0.2867
    124  CB        -1.7300    1.7790   -3.7760 C.3   113  PHE113      0.0534
    125  CG        -3.2540    1.6310   -3.6190 C.ar  113  PHE113     -0.0203
    126  CD1       -3.8840    0.4210   -3.8870 C.ar  113  PHE113     -0.0042
    127  CD2       -4.0560    2.7120   -3.2380 C.ar  113  PHE113     -0.0042
    128  CE1       -5.2560    0.2880   -3.7850 C.ar  113  PHE113     -0.0003
    129  CE2       -5.4280    2.5760   -3.1300 C.ar  113  PHE113     -0.0003
    130  CZ        -6.0270    1.3650   -3.4070 C.ar  113  PHE113     -0.0000
    131  N        -12.4150    9.2400   -6.2030 N.3   121  TRP121     -0.1227
    132  CA       -12.7820    8.5580   -7.4570 C.3   121  TRP121      0.1737
    133  C        -12.5680    7.0300   -7.3570 C.2   121  TRP121      0.2595
    134  O        -12.9930    6.2870   -8.2430 O.2   121  TRP121     -0.2718
    135  CB       -12.0110    9.1670   -8.6580 C.3   121  TRP121      0.0564
    136  CG       -10.5110    9.2090   -8.4820 C.ar  121  TRP121      0.0003
    137  CD1       -9.6010    8.2600   -8.8640 C.ar  121  TRP121      0.0946
    138  CD2       -9.7530   10.2700   -7.8750 C.ar  121  TRP121      0.0152
    139  NE1       -8.3360    8.6660   -8.5320 N.ar  121  TRP121     -0.2442
    140  CE2       -8.4040    9.9000   -7.9300 C.ar  121  TRP121      0.0810
    141  CE3      -10.0930   11.5020   -7.2950 C.ar  121  TRP121      0.0012
    142  CZ2       -7.3930   10.7120   -7.4260 C.ar  121  TRP121      0.0191
    143  CZ3       -9.0880   12.3050   -6.7980 C.ar  121  TRP121      0.0001
    144  CH2       -7.7490   11.9080   -6.8690 C.ar  121  TRP121      0.0015
    145  N        -11.9060    6.5710   -6.2680 N.am  122  LEU122     -0.1980
    146  CA       -11.7240    5.1350   -5.9760 C.3   122  LEU122      0.1596
    147  C        -12.8900    4.5640   -5.1350 C.2   122  LEU122      0.2287
    148  O        -12.8410    3.3940   -4.7310 O.2   122  LEU122     -0.2864
    149  CB       -10.3620    4.8890   -5.2660 C.3   122  LEU122      0.0297
    150  CG        -9.0740    5.2490   -6.0800 C.3   122  LEU122      0.0022
    151  CD1       -7.7990    4.8460   -5.3060 C.3   122  LEU122      0.0001
    152  CD2       -9.0930    4.6180   -7.4930 C.3   122  LEU122      0.0001
    153  N          4.5740   11.4810  -12.7730 N.3   148  ARG148     -0.1245
    154  CA         3.1510   11.4620  -13.1930 C.3   148  ARG148      0.1563
    155  C          2.7730   10.1690  -13.9530 C.2   148  ARG148      0.2260
    156  O          1.6790    9.6330  -13.7540 O.2   148  ARG148     -0.2867
    157  CB         2.8290   12.7200  -14.0520 C.3   148  ARG148      0.0307
    158  CG         2.9280   14.0530  -13.2760 C.3   148  ARG148      0.0489
    159  CD         1.8390   14.2120  -12.1920 C.3   148  ARG148      0.2205
    160  NE         2.0530   15.4240  -11.3770 N.pl3 148  ARG148     -0.0865
    161  CZ         1.0940   16.2010  -10.8420 C.cat 148  ARG148      0.5346
    162  NH1       -0.1950   15.9320  -11.0130 N.pl3 148  ARG148      0.1354
    163  NH2        1.4410   17.2540  -10.1210 N.pl3 148  ARG148      0.1354
@<TRIPOS>BOND
     1   157   158    1
     2   157   154    1
     3   155   156    2
     4   155   154    1
     5    69    70    1
     6    70    71    1
     7   158   159    1
     8   154   153    1
     9    97    94    1
    10    65    67   ar
    11    65    64   ar
    12    67    68   ar
    13    96    95    2
    14    11     9    1
    15    71    72    2
    16    71    73   am
    17   159   160    1
    18    61    62    2
    19    61    60    1
    20     8     9    2
    21     8     7    1
    22    94    95    1
    23    94    93    1
    24    19    17    1
    25    64    63    1
    26    64    66   ar
    27   160   161    2
    28    68    66   ar
    29     9    10    1
    30    73    74    1
    31    63    60    1
    32   103   102    1
    33   162   161    1
    34   104   102    1
    35    60    59    1
    36   161   163    1
    37    17    16    1
    38     7     6    1
    39    18    16    1
    40     6     5    1
    41    78    77    1
    42    93    87   am
    43   102    99    1
    44    74    77    1
    45    74    75    1
    46    16    13    1
    47    88    87    2
    48    77    79    1
    49     5     2    1
    50    87    86    1
    51    26    25    1
    52    26    20    1
    53    25    24    1
    54   119   117   am
    55     2     1    1
    56     2     3    1
    57    13    12    1
    58    13    14    1
    59    75    76    2
    60   137   139   ar
    61   137   136   ar
    62    99    98    1
    63    99   100    1
    64    40    38   ar
    65    40    41   ar
    66   135   136    1
    67   135   132    1
    68   139   140   ar
    69    23    22    2
    70   136   138   ar
    71    38    36   ar
    72    41    39   ar
    73   134   133    2
    74     3     4    2
    75    20    14   am
    76    20    21    1
    77   101   100    2
    78    86    89    1
    79    86    85    1
    80    57    56    2
    81   118   117    2
    82    14    15    2
    83   117   116    1
    84   140   138   ar
    85   140   142   ar
    86   138   141   ar
    87   110   109    1
    88    36    35    1
    89    36    37   ar
    90    24    21    1
    91    39    37   ar
    92    35    32    1
    93    58    56   am
    94   152   150    1
    95   132   133    1
    96   132   131    1
    97   142   144   ar
    98    22    21    1
    99    22    27   am
   100   133   145   am
   101   109   106    1
   102    56    55    1
   103   141   143   ar
   104    89    90    1
   105    92    90   am
   106    85    82   am
   107    90    91    2
   108    49    48    1
   109   144   143   ar
   110   116   115    1
   111    30    29    2
   112    29    28    1
   113    29    31   am
   114   145   146    1
   115    55    54    1
   116    27    28    1
   117    82    83    2
   118    82    81    1
   119   150   151    1
   120   150   149    1
   121    32    31    1
   122    32    33    1
   123    84    81    1
   124   146   149    1
   125   146   147    1
   126   108   107    2
   127   106   107    1
   128   106   105    1
   129    54    51    1
   130    45    44    2
   131   115   112    1
   132   107   111   am
   133    81    80    1
   134    48    47    1
   135    42    33   am
   136    42    43    1
   137    53    52    2
   138   147   148    2
   139    33    34    2
   140    46    43    1
   141    46    47    1
   142   111   112    1
   143    44    43    1
   144   112   113    1
   145    51    50    1
   146    51    52    1
   147   126   128   ar
   148   126   125   ar
   149   128   130   ar
   150   124   125    1
   151   124   121    1
   152   125   127   ar
   153   113   114    2
   154   130   129   ar
   155   127   129   ar
   156   121   120    1
   157   121   122    1
   158   122   123    2
