@<TRIPOS>MOLECULE
tmp/2msbB00.pdb
 94 88 0 0 0
SMALL
GASTEIGER

@<TRIPOS>ATOM
      1  N         -4.6210   14.4240   -3.4670 N.3    74  LYS74      -0.1245
      2  CA        -5.7930   14.7750   -2.6950 C.3    74  LYS74       0.1561
      3  C         -6.4040   15.8990   -3.5330 C.2    74  LYS74       0.2260
      4  O         -5.6910   16.5640   -4.2930 O.2    74  LYS74      -0.2867
      5  CB        -5.3370   15.2960   -1.3360 C.3    74  LYS74       0.0271
      6  CG        -6.4130   15.8860   -0.4810 C.3    74  LYS74       0.0035
      7  CD        -5.8380   16.2770    0.8690 C.3    74  LYS74       0.0206
      8  CE        -6.9040   16.9140    1.7400 C.3    74  LYS74       0.1093
      9  NZ        -6.3790   17.2320    3.0940 N.3    74  LYS74      -0.1314
     10  N         -4.7600   19.3800   -4.9870 N.3    77  GLU77      -0.1245
     11  CA        -3.3190   19.2200   -4.8180 C.3    77  GLU77       0.1567
     12  C         -2.8550   18.6340   -6.1370 C.2    77  GLU77       0.2260
     13  O         -3.6470   18.0290   -6.8610 O.2    77  GLU77      -0.2867
     14  CB        -2.9930   18.2380   -3.6920 C.3    77  GLU77       0.0388
     15  CG        -3.5520   18.6100   -2.3440 C.3    77  GLU77       0.1160
     16  CD        -3.0060   19.8980   -1.8090 C.2    77  GLU77       0.3649
     17  OE1       -1.9970   20.4070   -2.3430 O.co2  77  GLU77      -0.2457
     18  OE2       -3.5810   20.4060   -0.8230 O.co2  77  GLU77      -0.2457
     19  N         -0.5870   22.0000   -4.9630 N.3    79  ASN79      -0.1240
     20  CA        -0.8700   23.4260   -5.0410 C.3    79  ASN79       0.1653
     21  C          0.3410   24.3460   -4.8270 C.2    79  ASN79       0.2266
     22  O          0.2000   25.5650   -4.8850 O.2    79  ASN79      -0.2867
     23  CB        -2.0140   23.7870   -4.0840 C.3    79  ASN79       0.1155
     24  CG        -1.6430   23.6100   -2.6240 C.2    79  ASN79       0.2627
     25  OD1       -0.5530   23.1260   -2.2970 O.2    79  ASN79      -0.2716
     26  ND2       -2.5450   24.0170   -1.7330 N.am   79  ASN79      -0.0877
     27  N          1.7090   25.3970   -2.4020 N.3    81  HIS81      -0.1241
     28  CA         1.2800   26.3960   -1.4290 C.3    81  HIS81       0.1621
     29  C          2.3630   27.2520   -0.7650 C.2    81  HIS81       0.2264
     30  O          3.4980   26.8200   -0.5910 O.2    81  HIS81      -0.2867
     31  CB         0.4170   25.7290   -0.3590 C.3    81  HIS81       0.0745
     32  CG        -0.1770   26.6880    0.6170 C.ar   81  HIS81       0.0817
     33  ND1        0.5770   27.2430    1.6230 N.ar   81  HIS81      -0.2268
     34  CD2       -1.4300   27.2000    0.6590 C.ar   81  HIS81       0.1154
     35  CE1       -0.2250   28.0770    2.2530 C.ar   81  HIS81       0.1986
     36  NE2       -1.4500   28.0860    1.7050 N.ar   81  HIS81      -0.2212
     37  N          6.1070   24.3130   -2.4810 N.3    85  GLU85      -0.1245
     38  CA         6.0380   22.9540   -1.9880 C.3    85  GLU85       0.1567
     39  C          6.5370   22.0640   -3.1210 C.2    85  GLU85       0.2260
     40  O          5.8920   21.9530   -4.1490 O.2    85  GLU85      -0.2867
     41  CB         4.5900   22.6240   -1.6460 C.3    85  GLU85       0.0388
     42  CG         4.1190   23.3950   -0.4410 C.3    85  GLU85       0.1160
     43  CD         2.7290   22.9930    0.0170 C.2    85  GLU85       0.3649
     44  OE1        1.8550   22.7070   -0.8340 O.co2  85  GLU85      -0.2457
     45  OE2        2.5330   22.9880    1.2430 O.co2  85  GLU85      -0.2457
     46  N         -0.5750   11.2220    2.7700 N.3    91  VAL91      -0.1231
     47  CA        -1.2310   11.5910    4.0090 C.3    91  VAL91       0.1692
     48  C         -2.2850   10.5690    4.4390 C.2    91  VAL91       0.2592
     49  O         -2.1160    9.3640    4.2150 O.2    91  VAL91      -0.2718
     50  CB        -1.8380   13.0130    3.8940 C.3    91  VAL91       0.0266
     51  CG1       -0.7480   14.0140    3.5410 C.3    91  VAL91       0.0020
     52  CG2       -2.9180   13.0440    2.8330 C.3    91  VAL91       0.0020
     53  N         -3.3390   11.0490    5.1000 N.am   92  ASP92      -0.1974
     54  CA        -4.4230   10.1910    5.5680 C.3    92  ASP92       0.1709
     55  C         -5.2570    9.6820    4.4010 C.2    92  ASP92       0.2293
     56  O         -5.5330   10.4100    3.4360 O.2    92  ASP92      -0.2864
     57  CB        -5.2940   10.9180    6.5970 C.3    92  ASP92       0.1436
     58  CG        -5.8390   12.2270    6.0780 C.2    92  ASP92       0.3671
     59  OD1       -5.1450   13.2580    6.2280 O.co2  92  ASP92      -0.2456
     60  OD2       -6.9580   12.2240    5.5190 O.co2  92  ASP92      -0.2456
     61  N         -0.2460   14.9220   -0.9390 N.3    97  ASN97      -0.1225
     62  CA        -0.2500   16.3700   -0.8200 C.3    97  ASN97       0.1785
     63  C          1.1850   16.8010   -1.0510 C.2    97  ASN97       0.2597
     64  O          2.1020   16.1120   -0.5930 O.2    97  ASN97      -0.2718
     65  CB        -0.7020   16.8240    0.5730 C.3    97  ASN97       0.1169
     66  CG        -0.5120   18.3250    0.7900 C.2    97  ASN97       0.2627
     67  OD1       -0.8020   19.1140   -0.0940 O.2    97  ASN97      -0.2716
     68  ND2        0.0460   18.7110    1.9380 N.am   97  ASN97      -0.0877
     69  N          1.3950   17.8400   -1.8620 N.am   98  ASP98      -0.1960
     70  CA         2.7520   18.3450   -2.0350 C.3    98  ASP98       0.1840
     71  C          2.9800   19.2100   -0.7920 C.2    98  ASP98       0.2621
     72  O          2.0360   19.8350   -0.2620 O.2    98  ASP98      -0.2715
     73  CB         2.9610   19.0960   -3.3710 C.3    98  ASP98       0.1450
     74  CG         2.0330   20.3100   -3.5660 C.2    98  ASP98       0.3671
     75  OD1        0.9370   20.4070   -2.9700 O.co2  98  ASP98      -0.2456
     76  OD2        2.4190   21.1840   -4.3570 O.co2  98  ASP98      -0.2456
     77  N          4.2080   19.1880   -0.2960 N.am   99  ILE99      -0.1977
     78  CA         4.5560   19.8700    0.9310 C.3    99  ILE99       0.1596
     79  C          5.9900   20.3200    0.8310 C.2    99  ILE99       0.2287
     80  O          6.7420   19.8920   -0.0550 O.2    99  ILE99      -0.2864
     81  CB         4.4200   18.8480    2.1170 C.3    99  ILE99       0.0276
     82  CG1        4.4340   19.5330    3.4770 C.3    99  ILE99       0.0022
     83  CG2        5.4560   17.7070    1.9840 C.3    99  ILE99       0.0022
     84  CD1        3.0850   20.1810    3.8330 C.3    99  ILE99       0.0001
     85  N          8.5160   14.3410    7.9290 N.3   105  HIS105     -0.1241
     86  CA         7.5620   13.2620    7.7170 C.3   105  HIS105      0.1621
     87  C          8.2650   11.9250    7.8460 C.2   105  HIS105      0.2264
     88  O          9.4770   11.8610    7.8790 O.2   105  HIS105     -0.2867
     89  CB         6.8820   13.4170    6.3620 C.3   105  HIS105      0.0745
     90  CG         5.9960   14.6170    6.2820 C.ar  105  HIS105      0.0817
     91  ND1        4.6850   14.5540    6.6830 N.ar  105  HIS105     -0.2268
     92  CD2        6.3260   15.9080    6.0290 C.ar  105  HIS105      0.1154
     93  CE1        4.2460   15.7980    6.6770 C.ar  105  HIS105      0.1986
     94  NE2        5.2090   16.6550    6.2870 N.ar  105  HIS105     -0.2212
@<TRIPOS>BOND
     1    13    12    2
     2    12    11    1
     3    20    19    1
     4    20    21    1
     5    20    23    1
     6    10    11    1
     7    22    21    2
     8    11    14    1
     9    76    74   ar
    10     4     3    2
    11    40    39    2
    12    23    24    1
    13    14    15    1
    14    74    73    1
    15    74    75   ar
    16     3     2    1
    17     1     2    1
    18    73    70    1
    19    39    38    1
    20     2     5    1
    21    24    25    2
    22    24    26   am
    23    37    38    1
    24    27    28    1
    25    15    16    1
    26    17    16   ar
    27    70    69    1
    28    70    71    1
    29    38    41    1
    30    69    63   am
    31    16    18   ar
    32    41    42    1
    33    28    29    1
    34    28    31    1
    35     5     6    1
    36    63    62    1
    37    63    64    2
    38    61    62    1
    39    44    43   ar
    40    62    65    1
    41    71    77   am
    42    71    72    2
    43    29    30    2
    44     6     7    1
    45    42    43    1
    46    31    32    1
    47    77    78    1
    48    67    66    2
    49    80    79    2
    50    43    45   ar
    51    65    66    1
    52    32    34   ar
    53    32    33   ar
    54    34    36   ar
    55    66    68   am
    56    79    78    1
    57     7     8    1
    58    78    81    1
    59    33    35   ar
    60    36    35   ar
    61     8     9    1
    62    83    81    1
    63    81    82    1
    64    46    47    1
    65    52    50    1
    66    56    55    2
    67    82    84    1
    68    51    50    1
    69    50    47    1
    70    47    48    1
    71    49    48    2
    72    55    54    1
    73    48    53   am
    74    53    54    1
    75    60    58   ar
    76    54    57    1
    77    92    90   ar
    78    92    94   ar
    79    58    59   ar
    80    58    57    1
    81    90    89    1
    82    90    91   ar
    83    94    93   ar
    84    89    86    1
    85    93    91   ar
    86    86    87    1
    87    86    85    1
    88    87    88    2
