@<TRIPOS>MOLECULE
tmp/2msdC00.pdb
 82 73 0 0 0
SMALL
GASTEIGER

@<TRIPOS>ATOM
      1  N          4.3230  -13.4250   19.6820 N.3     2  THR2       -0.1203
      2  CA         5.3260  -14.1220   20.4680 C.3     2  THR2        0.1994
      3  C          6.2200  -13.1350   21.2230 C.2     2  THR2        0.2617
      4  O          6.9160  -13.5110   22.1680 O.2     2  THR2       -0.2717
      5  CB         6.1860  -15.0480   19.5710 C.3     2  THR2        0.1784
      6  OG1        7.1570  -15.7570   20.3530 O.3     2  THR2       -0.2211
      7  CG2        6.8890  -14.2540   18.4770 C.3     2  THR2        0.0376
      8  N          6.1840  -11.8710   20.8150 N.am    3  GLU3       -0.1979
      9  CA         6.9950  -10.8440   21.4560 C.3     3  GLU3        0.1602
     10  C          6.1690  -10.0360   22.4480 C.2     3  GLU3        0.2287
     11  O          5.0660   -9.5850   22.1300 O.2     3  GLU3       -0.2864
     12  CB         7.6270   -9.9170   20.4130 C.3     3  GLU3        0.0415
     13  CG         8.5840   -8.8850   20.9940 C.3     3  GLU3        0.1163
     14  CD         8.1850   -7.4640   20.6510 C.2     3  GLU3        0.3649
     15  OE1        7.1400   -7.0010   21.1510 O.co2   3  GLU3       -0.2457
     16  OE2        8.9010   -6.8130   19.8620 O.co2   3  GLU3       -0.2457
     17  N          6.4280   -6.7990   25.2880 N.3     5  LYS5       -0.1245
     18  CA         7.2190   -5.6530   25.7310 C.3     5  LYS5        0.1561
     19  C          7.0350   -5.3750   27.2200 C.2     5  LYS5        0.2260
     20  O          5.9190   -5.1220   27.6850 O.2     5  LYS5       -0.2867
     21  CB         6.8550   -4.4040   24.9220 C.3     5  LYS5        0.0271
     22  CG         6.5810   -4.6710   23.4500 C.3     5  LYS5        0.0035
     23  CD         5.1520   -4.3010   23.0880 C.3     5  LYS5        0.0206
     24  CE         4.6950   -4.9850   21.8090 C.3     5  LYS5        0.1093
     25  NZ         4.7150   -6.4660   21.9270 N.3     5  LYS5       -0.1314
     26  N         17.6530   -1.3100   26.3440 N.3    39  SER39      -0.1217
     27  CA        16.7080   -2.4000   26.1810 C.3    39  SER39       0.1889
     28  C         17.4330   -3.7480   26.1880 C.2    39  SER39       0.2288
     29  O         18.6080   -3.8290   25.8230 O.2    39  SER39      -0.2866
     30  CB        15.9540   -2.2090   24.8640 C.3    39  SER39       0.2089
     31  OG        16.6810   -1.3510   23.9880 O.3    39  SER39      -0.2183
     32  N         16.4970   -7.6120   24.9460 N.3    41  ARG41      -0.1245
     33  CA        15.6460   -8.6370   24.3580 C.3    41  ARG41       0.1563
     34  C         16.2760  -10.0210   24.5300 C.2    41  ARG41       0.2260
     35  O         17.4190  -10.2470   24.1210 O.2    41  ARG41      -0.2867
     36  CB        15.4040   -8.3280   22.8730 C.3    41  ARG41       0.0307
     37  CG        14.5870   -9.3760   22.1320 C.3    41  ARG41       0.0489
     38  CD        14.1820   -8.8950   20.7450 C.3    41  ARG41       0.2205
     39  NE        15.3250   -8.4440   19.9490 N.pl3  41  ARG41      -0.0865
     40  CZ        15.7330   -9.0170   18.8180 C.cat  41  ARG41       0.5346
     41  NH1       15.0950  -10.0760   18.3320 N.pl3  41  ARG41       0.1354
     42  NH2       16.7840   -8.5260   18.1710 N.pl3  41  ARG41       0.1354
     43  N         15.3820  -14.4400   24.4420 N.3    43  GLN43      -0.1245
     44  CA        14.4840  -15.5230   24.0700 C.3    43  GLN43       0.1566
     45  C         14.4970  -16.5860   25.1660 C.2    43  GLN43       0.2260
     46  O         15.5690  -17.0100   25.6030 O.2    43  GLN43      -0.2867
     47  CB        14.9470  -16.1400   22.7470 C.3    43  GLN43       0.0367
     48  CG        13.8420  -16.3560   21.7280 C.3    43  GLN43       0.0905
     49  CD        12.7810  -17.3220   22.2090 C.2    43  GLN43       0.2608
     50  OE1       11.7660  -16.9180   22.7640 O.2    43  GLN43      -0.2717
     51  NE2       13.0100  -18.6090   22.0030 N.am   43  GLN43      -0.0878
     52  N          9.4380  -14.2320   23.2380 N.3    52  LEU52      -0.1245
     53  CA        10.5090  -13.2650   23.0960 C.3    52  LEU52       0.1561
     54  C         10.2130  -12.0730   23.9980 C.2    52  LEU52       0.2260
     55  O          9.3200  -11.2730   23.7100 O.2    52  LEU52      -0.2867
     56  CB        10.6060  -12.8220   21.6350 C.3    52  LEU52       0.0270
     57  CG        11.8150  -11.9680   21.2560 C.3    52  LEU52       0.0019
     58  CD1       13.1060  -12.7540   21.4350 C.3    52  LEU52       0.0001
     59  CD2       11.6830  -11.4710   19.8250 C.3    52  LEU52       0.0001
     60  N         11.3360   -8.5600   25.9110 N.3    54  ASP54      -0.1239
     61  CA        12.2310   -7.4150   25.8180 C.3    54  ASP54       0.1674
     62  C         11.9900   -6.4930   27.0010 C.2    54  ASP54       0.2266
     63  O         10.8600   -6.0580   27.2380 O.2    54  ASP54      -0.2867
     64  CB        12.0280   -6.6550   24.5090 C.3    54  ASP54       0.1410
     65  CG        12.8080   -5.3520   24.4720 C.2    54  ASP54       0.3668
     66  OD1       14.0040   -5.3600   24.8260 O.co2  54  ASP54      -0.2456
     67  OD2       12.2270   -4.3210   24.0730 O.co2  54  ASP54      -0.2456
     68  N         12.6140   -2.9870   28.6860 N.3    56  LEU56      -0.1245
     69  CA        13.0130   -1.6170   28.4310 C.3    56  LEU56       0.1561
     70  C         13.2760   -0.8840   29.7440 C.2    56  LEU56       0.2260
     71  O         12.3410   -0.4650   30.4410 O.2    56  LEU56      -0.2867
     72  CB        11.9460   -0.8850   27.6110 C.3    56  LEU56       0.0270
     73  CG        12.2860    0.5450   27.1840 C.3    56  LEU56       0.0019
     74  CD1       13.4880    0.5630   26.2510 C.3    56  LEU56       0.0001
     75  CD2       11.0830    1.2110   26.5330 C.3    56  LEU56       0.0001
     76  N          4.4560    2.0800   24.1630 N.3    74  THR74      -0.1218
     77  CA         4.4810    0.7480   23.5700 C.3    74  THR74       0.1862
     78  C          4.5480   -0.3590   24.6300 C.2    74  THR74       0.2287
     79  O          4.4630   -1.5420   24.3050 O.2    74  THR74      -0.2866
     80  CB         5.6760    0.6110   22.6040 C.3    74  THR74       0.1770
     81  OG1        5.9730    1.8940   22.0310 O.3    74  THR74      -0.2211
     82  CG2        5.3510   -0.3650   21.4810 C.3    74  THR74       0.0375
@<TRIPOS>BOND
     1    42    40    1
     2    41    40    1
     3     7     5    1
     4    40    39    2
     5     5     6    1
     6     5     2    1
     7     1     2    1
     8    59    57    1
     9    16    14   ar
    10    39    38    1
    11    12    13    1
    12    12     9    1
    13     2     3    1
    14    14    13    1
    15    14    15   ar
    16    38    37    1
    17     8     3   am
    18     8     9    1
    19     3     4    2
    20    57    58    1
    21    57    56    1
    22     9    10    1
    23    82    80    1
    24    56    53    1
    25    48    49    1
    26    48    47    1
    27    24    25    1
    28    24    23    1
    29    51    49   am
    30    81    80    1
    31    11    10    2
    32    37    36    1
    33    49    50    2
    34    80    77    1
    35    47    44    1
    36    36    33    1
    37    23    22    1
    38    53    52    1
    39    53    54    1
    40    22    21    1
    41    77    76    1
    42    77    78    1
    43    55    54    2
    44    31    30    1
    45    44    43    1
    46    44    45    1
    47    67    65   ar
    48    35    34    2
    49    79    78    2
    50    33    34    1
    51    33    32    1
    52    65    64    1
    53    65    66   ar
    54    64    61    1
    55    30    27    1
    56    21    18    1
    57    45    46    2
    58    17    18    1
    59    18    19    1
    60    61    60    1
    61    61    62    1
    62    29    28    2
    63    27    28    1
    64    27    26    1
    65    74    73    1
    66    75    73    1
    67    62    63    2
    68    73    72    1
    69    19    20    2
    70    72    69    1
    71    69    68    1
    72    69    70    1
    73    70    71    2
