@<TRIPOS>MOLECULE
tmp/2mt9A00.pdb
 171 172 0 0 0
SMALL
GASTEIGER

@<TRIPOS>ATOM
      1  N          4.7060   14.7910  -21.8750 N.3     9  SER9       -0.1202
      2  CA         3.8730   15.8460  -22.4220 C.3     9  SER9        0.2020
      3  C          4.7620   16.7640  -23.2660 C.2     9  SER9        0.2619
      4  O          5.8500   17.1350  -22.8190 O.2     9  SER9       -0.2717
      5  CB         3.2030   16.5940  -21.2520 C.3     9  SER9        0.2103
      6  OG         4.0720   16.7320  -20.1380 O.3     9  SER9       -0.2182
      7  N          4.3010   17.1520  -24.4600 N.am   10  SER10      -0.1937
      8  CA         5.0190   18.1470  -25.2650 C.3    10  SER10       0.2055
      9  C          4.5710   19.5590  -24.8670 C.2    10  SER10       0.2643
     10  O          5.3540   20.5030  -24.9730 O.2    10  SER10      -0.2714
     11  CB         4.7880   17.9090  -26.7570 C.3    10  SER10       0.2130
     12  OG         4.9150   16.5330  -27.0700 O.3    10  SER10      -0.2179
     13  N          3.3220   19.6900  -24.4000 N.am   11  THR11      -0.1950
     14  CA         2.7260   20.9540  -24.0200 C.3    11  THR11       0.1897
     15  C          2.6150   20.9400  -22.4850 C.2    11  THR11       0.2313
     16  O          3.5790   21.2730  -21.7920 O.2    11  THR11      -0.2863
     17  CB         1.4210   21.1600  -24.8220 C.3    11  THR11       0.1794
     18  OG1        0.5080   20.1270  -24.4950 O.3    11  THR11      -0.2208
     19  CG2        1.6410   21.0560  -26.3360 C.3    11  THR11       0.0378
     20  N         -0.7790   18.8700  -21.3760 N.3    13  TYR13      -0.1227
     21  CA        -2.0430   18.1340  -21.1840 C.3    13  TYR13       0.1736
     22  C         -1.8590   16.8790  -20.3290 C.2    13  TYR13       0.2596
     23  O         -2.5940   16.6670  -19.3650 O.2    13  TYR13      -0.2718
     24  CB        -2.6940   17.8080  -22.5360 C.3    13  TYR13       0.0548
     25  CG        -2.9970   19.0050  -23.4290 C.ar   13  TYR13      -0.0200
     26  CD1       -3.7470   20.0920  -22.9380 C.ar   13  TYR13      -0.0009
     27  CD2       -2.5570   19.0180  -24.7670 C.ar   13  TYR13      -0.0009
     28  CE1       -4.0290   21.1950  -23.7610 C.ar   13  TYR13       0.0417
     29  CE2       -2.8310   20.1180  -25.5990 C.ar   13  TYR13       0.0417
     30  CZ        -3.5620   21.2190  -25.0980 C.ar   13  TYR13       0.1957
     31  OH        -3.8200   22.2840  -25.9120 O.3    13  TYR13      -0.2866
     32  N         -0.8320   16.0820  -20.6290 N.am   14  THR14      -0.1953
     33  CA        -0.5410   14.8540  -19.8770 C.3    14  THR14       0.1897
     34  C         -0.1030   15.2090  -18.4560 C.2    14  THR14       0.2313
     35  O         -0.4500   14.5060  -17.5100 O.2    14  THR14      -0.2863
     36  CB         0.5160   13.9920  -20.5950 C.3    14  THR14       0.1794
     37  OG1        0.7470   14.4920  -21.8960 O.3    14  THR14      -0.2208
     38  CG2        0.0920   12.5360  -20.7420 C.3    14  THR14       0.0378
     39  N          0.0500   10.5570  -24.8120 N.3    54  PRO54      -0.2102
     40  CA        -0.6810   11.2860  -25.8470 C.3    54  PRO54       0.1504
     41  C         -0.3970   10.6430  -27.2140 C.2    54  PRO54       0.2576
     42  O          0.7420   10.2390  -27.4660 O.2    54  PRO54      -0.2718
     43  CB        -0.1850   12.7420  -25.7740 C.3    54  PRO54       0.0282
     44  CG         0.6030   12.8010  -24.4680 C.3    54  PRO54       0.0208
     45  CD         1.1090   11.3860  -24.2660 C.3    54  PRO54       0.0893
     46  N         -1.3880   10.5750  -28.1080 N.am   55  THR55      -0.1939
     47  CA        -1.1500   10.1380  -29.4810 C.3    55  THR55       0.2028
     48  C         -0.8680   11.3790  -30.3300 C.2    55  THR55       0.2642
     49  O         -1.7760   12.1720  -30.5760 O.2    55  THR55      -0.2714
     50  CB        -2.3390    9.3390  -30.0150 C.3    55  THR55       0.1808
     51  OG1       -2.6700    8.2750  -29.1310 O.3    55  THR55      -0.2208
     52  CG2       -1.9540    8.7110  -31.3500 C.3    55  THR55       0.0379
     53  N          0.3670   11.5600  -30.7870 N.am   56  TRP56      -0.1959
     54  CA         0.7610   12.6250  -31.6830 C.3    56  TRP56       0.1771
     55  C          0.7460   12.1330  -33.1370 C.2    56  TRP56       0.2620
     56  O          0.5670   10.9430  -33.3990 O.2    56  TRP56      -0.2715
     57  CB         2.1190   13.1950  -31.2430 C.3    56  TRP56       0.0590
     58  CG         2.0570   14.2310  -30.1560 C.ar   56  TRP56       0.0006
     59  CD1        2.0350   13.9940  -28.8240 C.ar   56  TRP56       0.0946
     60  CD2        1.9970   15.6870  -30.2900 C.ar   56  TRP56       0.0152
     61  NE1        2.0280   15.1900  -28.1240 N.ar   56  TRP56      -0.2442
     62  CE2        1.9440   16.2620  -28.9860 C.ar   56  TRP56       0.0810
     63  CE3        1.9830   16.5850  -31.3830 C.ar   56  TRP56       0.0012
     64  CZ2        1.8490   17.6440  -28.7860 C.ar   56  TRP56       0.0191
     65  CZ3        1.9070   17.9790  -31.1860 C.ar   56  TRP56       0.0001
     66  CH2        1.8300   18.5120  -29.8860 C.ar   56  TRP56       0.0015
     67  N          0.9220   13.0750  -34.0720 N.am   57  ASP57      -0.1957
     68  CA         1.1790   12.9070  -35.5100 C.3    57  ASP57       0.1840
     69  C          0.6420   11.6050  -36.1360 C.2    57  ASP57       0.2622
     70  O          1.4020   10.8080  -36.6920 O.2    57  ASP57      -0.2715
     71  CB         2.6690   13.1410  -35.8010 C.3    57  ASP57       0.1450
     72  CG         2.9600   13.1930  -37.3150 C.2    57  ASP57       0.3671
     73  OD1        2.1430   13.7620  -38.0830 O.co2  57  ASP57      -0.2456
     74  OD2        4.0500   12.7340  -37.7390 O.co2  57  ASP57      -0.2456
     75  N         -0.6810   11.3990  -36.0580 N.am   58  PHE58      -0.1960
     76  CA        -1.3850   10.2460  -36.6240 C.3    58  PHE58       0.1771
     77  C         -0.8140    8.9090  -36.1300 C.2    58  PHE58       0.2620
     78  O         -0.1420    8.1810  -36.8720 O.2    58  PHE58      -0.2715
     79  CB        -1.4650   10.3450  -38.1530 C.3    58  PHE58       0.0574
     80  CG        -2.2590   11.5390  -38.6380 C.ar   58  PHE58      -0.0200
     81  CD1       -3.6590   11.5180  -38.5270 C.ar   58  PHE58      -0.0042
     82  CD2       -1.6160   12.6690  -39.1750 C.ar   58  PHE58      -0.0042
     83  CE1       -4.4210   12.6040  -38.9910 C.ar   58  PHE58      -0.0003
     84  CE2       -2.3760   13.7630  -39.6270 C.ar   58  PHE58      -0.0003
     85  CZ        -3.7810   13.7280  -39.5410 C.ar   58  PHE58      -0.0000
     86  N         -1.1430    8.5430  -34.8860 N.am   59  GLY59      -0.1954
     87  CA        -0.7500    7.2550  -34.3320 C.3    59  GLY59       0.1869
     88  C          0.7260    7.1360  -33.9520 C.2    59  GLY59       0.2309
     89  O          1.2310    6.0280  -33.7600 O.2    59  GLY59      -0.2863
     90  N          3.9940   10.3350  -28.2620 N.3    62  GLN62      -0.1245
     91  CA         4.6240   11.5730  -27.8420 C.3    62  GLN62       0.1566
     92  C          6.1450   11.3570  -27.8360 C.2    62  GLN62       0.2260
     93  O          6.6590   10.3260  -27.3970 O.2    62  GLN62      -0.2867
     94  CB         4.0300   12.0090  -26.4980 C.3    62  GLN62       0.0367
     95  CG         4.4060   13.4280  -26.0440 C.3    62  GLN62       0.0905
     96  CD         5.8040   13.5200  -25.4390 C.2    62  GLN62       0.2608
     97  OE1        6.3220   12.5400  -24.9220 O.2    62  GLN62      -0.2717
     98  NE2        6.4490   14.6680  -25.5260 N.am   62  GLN62      -0.0878
     99  N         -4.4090   10.3540  -24.3730 N.3    87  LEU87      -0.1231
    100  CA        -4.9850   11.5960  -24.8620 C.3    87  LEU87       0.1693
    101  C         -5.0370   11.5220  -26.3840 C.2    87  LEU87       0.2593
    102  O         -4.1940   10.8620  -27.0010 O.2    87  LEU87      -0.2718
    103  CB        -4.1380   12.8140  -24.4430 C.3    87  LEU87       0.0284
    104  CG        -3.5740   12.8670  -23.0160 C.3    87  LEU87       0.0019
    105  CD1       -2.8290   14.1900  -22.8420 C.3    87  LEU87       0.0001
    106  CD2       -4.6300   12.7910  -21.9180 C.3    87  LEU87       0.0001
    107  N         -5.9730   12.2450  -26.9830 N.am   88  GLY88      -0.1942
    108  CA        -6.0570   12.4470  -28.4160 C.3    88  GLY88       0.2014
    109  C         -7.2210   13.3930  -28.6960 C.2    88  GLY88       0.2638
    110  O         -7.4920   14.2620  -27.8710 O.2    88  GLY88      -0.2714
    111  N         -7.9210   13.2050  -29.8130 N.am   89  ASP89      -0.1971
    112  CA        -9.1700   13.8500  -30.1860 C.3    89  ASP89       0.1709
    113  C         -9.9450   12.8960  -31.1030 C.2    89  ASP89       0.2293
    114  O         -9.3710   12.1810  -31.9250 O.2    89  ASP89      -0.2864
    115  CB        -8.9040   15.1700  -30.9010 C.3    89  ASP89       0.1436
    116  CG       -10.1890   15.6520  -31.5790 C.2    89  ASP89       0.3671
    117  OD1      -11.2860   15.6290  -30.9590 O.co2  89  ASP89      -0.2456
    118  OD2      -10.1110   15.9600  -32.7840 O.co2  89  ASP89      -0.2456
    119  N         -9.7280   12.9060  -35.8360 N.3    93  TYR93      -0.1241
    120  CA        -9.1090   11.6090  -35.9660 C.3    93  TYR93       0.1605
    121  C        -10.1900   10.5330  -35.8660 C.2    93  TYR93       0.2264
    122  O        -10.7210   10.0740  -36.8750 O.2    93  TYR93      -0.2867
    123  CB        -7.9390   11.4540  -34.9590 C.3    93  TYR93       0.0534
    124  CG        -6.9570   12.6090  -34.9440 C.ar   93  TYR93      -0.0201
    125  CD1       -7.2410   13.7430  -34.1610 C.ar   93  TYR93      -0.0009
    126  CD2       -5.7930   12.5800  -35.7290 C.ar   93  TYR93      -0.0009
    127  CE1       -6.4150   14.8760  -34.2190 C.ar   93  TYR93       0.0417
    128  CE2       -4.9530   13.7080  -35.7860 C.ar   93  TYR93       0.0417
    129  CZ        -5.2780   14.8750  -35.0580 C.ar   93  TYR93       0.1957
    130  OH        -4.4880   15.9810  -35.1650 O.3    93  TYR93      -0.2866
    131  N         -7.1780    7.4850  -35.0910 N.3    96  TRP96      -0.1227
    132  CA        -5.9130    7.5480  -34.3760 C.3    96  TRP96       0.1737
    133  C         -6.1090    7.9710  -32.9160 C.2    96  TRP96       0.2595
    134  O         -5.1380    8.1260  -32.1890 O.2    96  TRP96      -0.2718
    135  CB        -4.9010    8.4010  -35.1520 C.3    96  TRP96       0.0564
    136  CG        -4.7180    7.9780  -36.5810 C.ar   96  TRP96       0.0003
    137  CD1       -3.8360    7.0540  -37.0260 C.ar   96  TRP96       0.0946
    138  CD2       -5.4710    8.3950  -37.7620 C.ar   96  TRP96       0.0152
    139  NE1       -3.9960    6.8730  -38.3860 N.ar   96  TRP96      -0.2442
    140  CE2       -5.0160    7.6490  -38.8850 C.ar   96  TRP96       0.0810
    141  CE3       -6.5130    9.3170  -37.9940 C.ar   96  TRP96       0.0012
    142  CZ2       -5.5930    7.7780  -40.1570 C.ar   96  TRP96       0.0191
    143  CZ3       -7.0690    9.4950  -39.2770 C.ar   96  TRP96       0.0001
    144  CH2       -6.6200    8.7150  -40.3570 C.ar   96  TRP96       0.0015
    145  N         -7.3410    8.2080  -32.4660 N.am   97  PHE97      -0.1976
    146  CA        -7.6820    8.4060  -31.0790 C.3    97  PHE97       0.1639
    147  C         -7.1750    7.2360  -30.2490 C.2    97  PHE97       0.2290
    148  O         -7.4710    6.0790  -30.5500 O.2    97  PHE97      -0.2864
    149  CB        -9.2060    8.6050  -30.9810 C.3    97  PHE97       0.0560
    150  CG        -9.7590    9.3900  -29.8110 C.ar   97  PHE97      -0.0200
    151  CD1       -8.9700   10.2630  -29.0450 C.ar   97  PHE97      -0.0042
    152  CD2      -11.1270    9.2750  -29.5300 C.ar   97  PHE97      -0.0042
    153  CE1       -9.5410   10.9980  -27.9890 C.ar   97  PHE97      -0.0003
    154  CE2      -11.7020   10.0140  -28.4830 C.ar   97  PHE97      -0.0003
    155  CZ       -10.9130   10.8880  -27.7170 C.ar   97  PHE97      -0.0000
    156  N         -8.6250   17.0370  -25.1020 N.3   146  GLU146     -0.1231
    157  CA        -8.4770   18.4040  -24.6280 C.3   146  GLU146      0.1699
    158  C         -8.8520   19.4120  -25.7250 C.2   146  GLU146      0.2592
    159  O         -8.7140   20.6190  -25.5110 O.2   146  GLU146     -0.2718
    160  CB        -7.0410   18.6110  -24.1070 C.3   146  GLU146      0.0402
    161  CG        -6.7820   17.8980  -22.7720 C.3   146  GLU146      0.1161
    162  CD        -7.5370   18.5620  -21.6080 C.2   146  GLU146      0.3649
    163  OE1       -7.0730   19.6120  -21.0990 O.co2 146  GLU146     -0.2457
    164  OE2       -8.5790   18.0180  -21.1710 O.co2 146  GLU146     -0.2457
    165  N         -9.3290   18.9540  -26.8890 N.am  147  THR147     -0.1953
    166  CA        -9.6590   19.8150  -28.0160 C.3   147  THR147      0.1897
    167  C        -11.1640   20.1280  -28.0550 C.2   147  THR147      0.2313
    168  O        -11.5500   21.1720  -28.5840 O.2   147  THR147     -0.2863
    169  CB        -9.0360   19.2480  -29.3170 C.3   147  THR147      0.1794
    170  OG1       -8.3810   20.2760  -30.0460 O.3   147  THR147     -0.2208
    171  CG2      -10.0190   18.5650  -30.2720 C.3   147  THR147      0.0378
@<TRIPOS>BOND
     1   144   142   ar
     2   144   143   ar
     3   142   140   ar
     4    84    85   ar
     5    84    82   ar
     6    85    83   ar
     7   143   141   ar
     8    82    80   ar
     9    83    81   ar
    10   140   139   ar
    11   140   138   ar
    12    80    81   ar
    13    80    79    1
    14   139   137   ar
    15    79    76    1
    16    73    72   ar
    17   141   138   ar
    18   138   136   ar
    19    74    72   ar
    20    72    71    1
    21   137   136   ar
    22   122   121    2
    23    78    77    2
    24    70    69    2
    25    76    77    1
    26    76    75    1
    27   136   135    1
    28    69    75   am
    29    69    68    1
    30    77    86   am
    31   120   121    1
    32   120   119    1
    33   120   123    1
    34    71    68    1
    35   128   126   ar
    36   128   129   ar
    37   126   124   ar
    38    68    67    1
    39   130   129    1
    40   135   132    1
    41   131   132    1
    42   129   127   ar
    43   123   124    1
    44   124   125   ar
    45    86    87    1
    46   132   133    1
    47    87    88    1
    48   127   125   ar
    49    67    55   am
    50    88    89    2
    51    56    55    2
    52    55    54    1
    53   133   145   am
    54   133   134    2
    55   118   116   ar
    56   145   146    1
    57   114   113    2
    58    54    57    1
    59    54    53    1
    60   116   117   ar
    61   116   115    1
    62    63    65   ar
    63    63    60   ar
    64    52    50    1
    65    57    58    1
    66    65    66   ar
    67   113   112    1
    68   146   149    1
    69   146   147    1
    70   149   150    1
    71   115   112    1
    72    53    48   am
    73    49    48    2
    74   148   147    2
    75    48    47    1
    76    60    58   ar
    77    60    62   ar
    78   171   169    1
    79   112   111    1
    80    58    59   ar
    81   170   169    1
    82    50    47    1
    83    50    51    1
    84    66    64   ar
    85   111   109   am
    86   150   152   ar
    87   150   151   ar
    88   152   154   ar
    89    47    46    1
    90   169   166    1
    91   151   153   ar
    92    62    64   ar
    93    62    61   ar
    94    59    61   ar
    95   109   108    1
    96   109   110    2
    97   168   167    2
    98   154   155   ar
    99   108   107    1
   100    90    91    1
   101    46    41   am
   102   167   166    1
   103   166   165    1
   104   153   155   ar
   105    91    92    1
   106    91    94    1
   107    92    93    2
   108    42    41    2
   109    41    40    1
   110    12    11    1
   111   102   101    2
   112   107   101   am
   113   165   158   am
   114    11     8    1
   115    94    95    1
   116   101   100    1
   117    19    17    1
   118    95    96    1
   119    31    30    1
   120    40    43    1
   121    40    39    1
   122    43    44    1
   123   158   159    2
   124   158   157    1
   125    29    30   ar
   126    29    27   ar
   127    98    96   am
   128    96    97    2
   129     8     9    1
   130     8     7    1
   131   156   157    1
   132    30    28   ar
   133    10     9    2
   134     9    13   am
   135   100   103    1
   136   100    99    1
   137    17    18    1
   138    17    14    1
   139    39    45    1
   140    27    25   ar
   141   157   160    1
   142    44    45    1
   143     7     3   am
   144   103   104    1
   145    13    14    1
   146   160   161    1
   147    14    15    1
   148    28    26   ar
   149    25    26   ar
   150    25    24    1
   151     3     4    2
   152     3     2    1
   153   104   105    1
   154   104   106    1
   155   161   162    1
   156    24    21    1
   157    15    16    2
   158     2     1    1
   159     2     5    1
   160    37    36    1
   161   162   164   ar
   162   162   163   ar
   163    20    21    1
   164     5     6    1
   165    21    22    1
   166    38    36    1
   167    32    22   am
   168    32    33    1
   169    36    33    1
   170    22    23    2
   171    33    34    1
   172    34    35    2
