@<TRIPOS>MOLECULE
tmp/2mtzA00.pdb
 123 120 0 0 0
SMALL
GASTEIGER

@<TRIPOS>ATOM
      1  N          4.0440   -9.4850   -4.6690 N.3    21  ASP21      -0.1239
      2  CA         2.9920   -8.7020   -4.0150 C.3    21  ASP21       0.1674
      3  C          2.9170   -7.2880   -4.6000 C.2    21  ASP21       0.2266
      4  O          1.8300   -6.7380   -4.7830 O.2    21  ASP21      -0.2867
      5  CB         3.2430   -8.6390   -2.5020 C.3    21  ASP21       0.1410
      6  CG         1.9680   -8.6290   -1.6700 C.2    21  ASP21       0.3668
      7  OD1        1.2480   -9.6440   -1.6580 O.co2  21  ASP21      -0.2456
      8  OD2        1.7050   -7.6200   -0.9900 O.co2  21  ASP21      -0.2456
      9  N          3.7960   -6.5300   -7.5990 N.3    23  ARG23      -0.1245
     10  CA         3.5470   -6.6430   -9.0430 C.3    23  ARG23       0.1563
     11  C          4.6460   -5.9880   -9.8740 C.2    23  ARG23       0.2260
     12  O          4.3950   -5.5040  -10.9790 O.2    23  ARG23      -0.2867
     13  CB         2.1840   -6.0560   -9.4250 C.3    23  ARG23       0.0307
     14  CG         1.0900   -7.0930   -9.5900 C.3    23  ARG23       0.0489
     15  CD         0.5170   -7.5040   -8.2460 C.3    23  ARG23       0.2205
     16  NE         0.0270   -8.8830   -8.2510 N.pl3  23  ARG23      -0.0865
     17  CZ        -0.0040   -9.6660   -7.1670 C.cat  23  ARG23       0.5346
     18  NH1        0.4090   -9.1960   -5.9950 N.pl3  23  ARG23       0.1354
     19  NH2       -0.4550  -10.9140   -7.2540 N.pl3  23  ARG23       0.1354
     20  N         -8.0930   -9.4870    8.3900 N.3    89  ILE89      -0.1245
     21  CA        -6.6970   -9.2340    8.0600 C.3    89  ILE89       0.1561
     22  C         -6.3460   -7.7550    8.2530 C.2    89  ILE89       0.2260
     23  O         -5.1990   -7.4090    8.5310 O.2    89  ILE89      -0.2867
     24  CB        -6.3930   -9.6720    6.6060 C.3    89  ILE89       0.0252
     25  CG1       -4.9320   -9.4280    6.2300 C.3    89  ILE89       0.0019
     26  CG2       -7.3330   -9.0000    5.6180 C.3    89  ILE89       0.0019
     27  CD1       -3.9970  -10.5250    6.6820 C.3    89  ILE89       0.0001
     28  N        -14.9330   -6.7470  -10.0460 N.3   111  PHE111     -0.1241
     29  CA       -13.9230   -6.2580   -9.1240 C.3   111  PHE111      0.1605
     30  C        -14.3120   -4.8930   -8.5810 C.2   111  PHE111      0.2264
     31  O        -13.7450   -4.4250   -7.5940 O.2   111  PHE111     -0.2867
     32  CB       -12.5570   -6.1770   -9.8010 C.3   111  PHE111      0.0534
     33  CG       -11.8380   -7.4920   -9.8940 C.ar  111  PHE111     -0.0203
     34  CD1      -11.0990   -7.9660   -8.8240 C.ar  111  PHE111     -0.0042
     35  CD2      -11.8900   -8.2480  -11.0530 C.ar  111  PHE111     -0.0042
     36  CE1      -10.4260   -9.1730   -8.9100 C.ar  111  PHE111     -0.0003
     37  CE2      -11.2200   -9.4520  -11.1480 C.ar  111  PHE111     -0.0003
     38  CZ       -10.4870   -9.9170  -10.0740 C.ar  111  PHE111     -0.0000
     39  N         -9.3510   -1.2060   -9.3940 N.3   115  TRP115     -0.1241
     40  CA        -8.6290   -1.9800   -8.3980 C.3   115  TRP115      0.1605
     41  C         -7.3580   -1.2440   -7.9960 C.2   115  TRP115      0.2264
     42  O         -6.4600   -1.0370   -8.8110 O.2   115  TRP115     -0.2867
     43  CB        -8.3140   -3.3840   -8.9360 C.3   115  TRP115      0.0550
     44  CG        -7.1550   -4.0810   -8.2790 C.ar  115  TRP115      0.0003
     45  CD1       -6.0430   -4.5600   -8.9060 C.ar  115  TRP115      0.0946
     46  CD2       -6.9850   -4.3830   -6.8820 C.ar  115  TRP115      0.0152
     47  NE1       -5.1950   -5.1410   -7.9980 N.ar  115  TRP115     -0.2442
     48  CE2       -5.7490   -5.0460   -6.7500 C.ar  115  TRP115      0.0810
     49  CE3       -7.7540   -4.1580   -5.7370 C.ar  115  TRP115      0.0012
     50  CZ2       -5.2660   -5.4870   -5.5190 C.ar  115  TRP115      0.0191
     51  CZ3       -7.2720   -4.5940   -4.5180 C.ar  115  TRP115      0.0001
     52  CH2       -6.0410   -5.2520   -4.4180 C.ar  115  TRP115      0.0015
     53  N          0.1800   -4.5150   -0.0970 N.3   120  LYS120     -0.1231
     54  CA        -0.2000   -5.8380    0.3730 C.3   120  LYS120      0.1693
     55  C         -1.4760   -6.2900   -0.3280 C.2   120  LYS120      0.2592
     56  O         -2.4720   -5.5670   -0.3340 O.2   120  LYS120     -0.2718
     57  CB        -0.3900   -5.8550    1.8910 C.3   120  LYS120      0.0285
     58  CG         0.8500   -6.2470    2.6790 C.3   120  LYS120      0.0035
     59  CD         1.2380   -7.6930    2.4200 C.3   120  LYS120      0.0206
     60  CE         2.7440   -7.8460    2.2830 C.3   120  LYS120      0.1093
     61  NZ         3.2500   -7.1680    1.0630 N.3   120  LYS120     -0.1314
     62  N         -1.4390   -7.4860   -0.9140 N.am  121  GLN121     -0.1966
     63  CA        -2.5890   -8.0450   -1.6360 C.3   121  GLN121      0.1733
     64  C         -3.8690   -8.1190   -0.7960 C.2   121  GLN121      0.2616
     65  O         -4.9670   -8.0670   -1.3410 O.2   121  GLN121     -0.2715
     66  CB        -2.2780   -9.4410   -2.1830 C.3   121  GLN121      0.0408
     67  CG        -1.4060   -9.4710   -3.4190 C.3   121  GLN121      0.0908
     68  CD        -1.0060  -10.8830   -3.8020 C.2   121  GLN121      0.2608
     69  OE1       -1.6850  -11.5470   -4.5810 O.2   121  GLN121     -0.2717
     70  NE2        0.1010  -11.3470   -3.2590 N.am  121  GLN121     -0.0878
     71  N         -3.7450   -8.2640    0.5180 N.am  122  HIS122     -0.1959
     72  CA        -4.9300   -8.3580    1.3700 C.3   122  HIS122      0.1787
     73  C         -5.2950   -7.0180    1.9840 C.2   122  HIS122      0.2620
     74  O         -6.2470   -6.9170    2.7550 O.2   122  HIS122     -0.2715
     75  CB        -4.7420   -9.4080    2.4650 C.3   122  HIS122      0.0785
     76  CG        -5.8080  -10.4590    2.4860 C.ar  122  HIS122      0.0821
     77  ND1       -5.5930  -11.7400    2.9490 N.ar  122  HIS122     -0.2267
     78  CD2       -7.1080  -10.4140    2.1030 C.ar  122  HIS122      0.1154
     79  CE1       -6.7100  -12.4340    2.8470 C.ar  122  HIS122      0.1986
     80  NE2       -7.6430  -11.6540    2.3380 N.ar  122  HIS122     -0.2212
     81  N         -4.5360   -5.9950    1.6350 N.am  123  TYR123     -0.1974
     82  CA        -4.7750   -4.6580    2.1500 C.3   123  TYR123      0.1639
     83  C         -5.0580   -3.7010    1.0020 C.2   123  TYR123      0.2290
     84  O         -4.9340   -2.4850    1.1430 O.2   123  TYR123     -0.2864
     85  CB        -3.5730   -4.1740    2.9720 C.3   123  TYR123      0.0560
     86  CG        -3.2950   -4.9960    4.2190 C.ar  123  TYR123     -0.0198
     87  CD1       -2.6760   -6.2380    4.1360 C.ar  123  TYR123     -0.0009
     88  CD2       -3.6430   -4.5310    5.4800 C.ar  123  TYR123     -0.0009
     89  CE1       -2.4120   -6.9910    5.2630 C.ar  123  TYR123      0.0417
     90  CE2       -3.3840   -5.2780    6.6160 C.ar  123  TYR123      0.0417
     91  CZ        -2.7680   -6.5060    6.5030 C.ar  123  TYR123      0.1957
     92  OH        -2.5070   -7.2520    7.6320 O.3   123  TYR123     -0.2866
     93  N        -10.6990   -1.7630   -3.4800 N.3   126  HIS126     -0.1241
     94  CA       -11.4180   -1.9180   -4.7400 C.3   126  HIS126      0.1621
     95  C        -12.9210   -1.8260   -4.5060 C.2   126  HIS126      0.2264
     96  O        -13.3720   -1.7990   -3.3590 O.2   126  HIS126     -0.2867
     97  CB       -11.0670   -3.2510   -5.4220 C.3   126  HIS126      0.0745
     98  CG       -11.5880   -4.4740   -4.7220 C.ar  126  HIS126      0.0817
     99  ND1      -12.6320   -5.2360   -5.2050 N.ar  126  HIS126     -0.2268
    100  CD2      -11.1940   -5.0730   -3.5730 C.ar  126  HIS126      0.1154
    101  CE1      -12.8540   -6.2450   -4.3860 C.ar  126  HIS126      0.1986
    102  NE2      -11.9970   -6.1720   -3.3860 N.ar  126  HIS126     -0.2212
    103  N        -11.7340  -10.6770    3.4190 N.3   141  GLY141     -0.1210
    104  CA       -11.7410   -9.9000    2.2020 C.3   141  GLY141      0.1956
    105  C        -10.8630   -8.6750    2.3300 C.2   141  GLY141      0.2612
    106  O        -10.5010   -8.2860    3.4430 O.2   141  GLY141     -0.2717
    107  N        -10.5190   -8.0740    1.2020 N.am  142  CYS142     -0.1970
    108  CA        -9.6810   -6.8850    1.1910 C.3   142  CYS142      0.1712
    109  C        -10.5510   -5.6450    1.4000 C.2   142  CYS142      0.2296
    110  O        -11.7720   -5.7590    1.5510 O.2   142  CYS142     -0.2864
    111  CB        -8.9360   -6.7900   -0.1450 C.3   142  CYS142      0.0983
    112  SG        -8.2190   -8.3520   -0.7180 S.3   142  CYS142     -0.0798
    113  N        -12.8850   -2.9590    0.6980 N.3   144  ARG144     -0.1245
    114  CA       -13.8860   -2.7610   -0.3310 C.3   144  ARG144      0.1563
    115  C        -14.6360   -1.4460   -0.1450 C.2   144  ARG144      0.2260
    116  O        -14.9280   -1.0320    0.9790 O.2   144  ARG144     -0.2867
    117  CB       -14.8570   -3.9410   -0.3650 C.3   144  ARG144      0.0307
    118  CG       -14.2320   -5.2590   -0.7990 C.3   144  ARG144      0.0489
    119  CD       -15.1260   -6.4320   -0.4340 C.3   144  ARG144      0.2205
    120  NE       -14.8440   -7.6120   -1.2480 N.pl3 144  ARG144     -0.0865
    121  CZ       -15.7580   -8.2460   -1.9800 C.cat 144  ARG144      0.5346
    122  NH1      -17.0150   -7.8180   -2.0080 N.pl3 144  ARG144      0.1354
    123  NH2      -15.4160   -9.3170   -2.6810 N.pl3 144  ARG144      0.1354
@<TRIPOS>BOND
     1    37    35   ar
     2    37    38   ar
     3    35    33   ar
     4    12    11    2
     5    38    36   ar
     6    28    29    1
     7    33    32    1
     8    33    34   ar
     9    11    10    1
    10    32    29    1
    11    14    13    1
    12    14    15    1
    13    13    10    1
    14    39    40    1
    15    29    30    1
    16    10     9    1
    17    43    40    1
    18    43    44    1
    19    36    34   ar
    20    45    44   ar
    21    45    47   ar
    22    42    41    2
    23    30    31    2
    24    40    41    1
    25    44    46   ar
    26    16    15    1
    27    16    17    2
    28    47    48   ar
    29    19    17    1
    30    17    18    1
    31    46    48   ar
    32    46    49   ar
    33    48    50   ar
    34    49    51   ar
    35    50    52   ar
    36    97    94    1
    37    97    98    1
    38    99    98   ar
    39    99   101   ar
    40     4     3    2
    41    94    95    1
    42    94    93    1
    43    98   100   ar
    44     1     2    1
    45     3     2    1
    46    69    68    2
    47    51    52   ar
    48    95    96    2
    49   101   102   ar
    50     2     5    1
    51    68    67    1
    52    68    70   am
    53   100   102   ar
    54    67    66    1
    55   123   121    1
    56     5     6    1
    57    66    63    1
    58   122   121    1
    59   121   120    2
    60     6     7   ar
    61     6     8   ar
    62    63    62    1
    63    63    64    1
    64    65    64    2
    65   120   119    1
    66    62    55   am
    67   118   119    1
    68   118   117    1
    69    64    71   am
    70   112   111    1
    71   117   114    1
    72    56    55    2
    73   114   115    1
    74   114   113    1
    75    55    54    1
    76   115   116    2
    77   111   108    1
    78    53    54    1
    79    54    57    1
    80    71    72    1
    81    83    84    2
    82    83    82    1
    83    61    60    1
    84   108   107    1
    85   108   109    1
    86   107   105   am
    87    72    73    1
    88    72    75    1
    89   109   110    2
    90    81    73   am
    91    81    82    1
    92    57    58    1
    93    73    74    2
    94    78    80   ar
    95    78    76   ar
    96    82    85    1
    97   104   105    1
    98   104   103    1
    99    60    59    1
   100   105   106    2
   101    80    79   ar
   102    59    58    1
   103    75    76    1
   104    76    77   ar
   105    79    77   ar
   106    85    86    1
   107    87    86   ar
   108    87    89   ar
   109    86    88   ar
   110    89    91   ar
   111    88    90   ar
   112    26    24    1
   113    25    24    1
   114    25    27    1
   115    91    90   ar
   116    91    92    1
   117    24    21    1
   118    21    22    1
   119    21    20    1
   120    22    23    2
