@<TRIPOS>MOLECULE
tmp/2mvvA00.pdb
 94 86 0 0 0
SMALL
GASTEIGER

@<TRIPOS>ATOM
      1  N          7.3450    4.5970    5.4360 N.3    35  PHE35      -0.1241
      2  CA         7.6090    4.4830    4.0090 C.3    35  PHE35       0.1605
      3  C          8.9680    5.0930    3.6770 C.2    35  PHE35       0.2264
      4  O          9.7510    4.5230    2.9180 O.2    35  PHE35      -0.2867
      5  CB         6.5000    5.1480    3.1940 C.3    35  PHE35       0.0534
      6  CG         5.1410    4.5290    3.3890 C.ar   35  PHE35      -0.0203
      7  CD1        4.8620    3.2580    2.9040 C.ar   35  PHE35      -0.0042
      8  CD2        4.1500    5.2070    4.0810 C.ar   35  PHE35      -0.0042
      9  CE1        3.6230    2.6840    3.0980 C.ar   35  PHE35      -0.0003
     10  CE2        2.9120    4.6310    4.2780 C.ar   35  PHE35      -0.0003
     11  CZ         2.6220    3.4080    3.7140 C.ar   35  PHE35      -0.0000
     12  N          9.2270    7.0160   -1.5130 N.3    41  ASP41      -0.1225
     13  CA         8.8310    8.4240   -1.3850 C.3    41  ASP41       0.1805
     14  C          7.3070    8.5430   -1.3580 C.2    41  ASP41       0.2598
     15  O          6.6650    8.4260   -0.3250 O.2    41  ASP41      -0.2718
     16  CB         9.3380    9.3000   -2.5650 C.3    41  ASP41       0.1424
     17  CG        10.8240    9.2790   -2.8120 C.2    41  ASP41       0.3668
     18  OD1       11.5810    9.8750   -2.0250 O.co2  41  ASP41      -0.2456
     19  OD2       11.2390    8.7550   -3.8710 O.co2  41  ASP41      -0.2456
     20  N          6.7540    8.7230   -2.5340 N.am   42  SER42      -0.1938
     21  CA         5.3500    8.9170   -2.7470 C.3    42  SER42       0.2055
     22  C          5.0050    8.4010   -4.1340 C.2    42  SER42       0.2642
     23  O          4.0770    7.6460   -4.3140 O.2    42  SER42      -0.2714
     24  CB         5.0840   10.4070   -2.6910 C.3    42  SER42       0.2130
     25  OG         6.0410   11.0440   -3.6130 O.3    42  SER42      -0.2179
     26  N          5.8000    8.8330   -5.1070 N.am   43  LEU43      -0.1977
     27  CA         5.6760    8.4510   -6.5180 C.3    43  LEU43       0.1596
     28  C          5.6630    6.9380   -6.6750 C.2    43  LEU43       0.2287
     29  O          4.6860    6.3630   -7.1510 O.2    43  LEU43      -0.2864
     30  CB         6.8340    9.0650   -7.3220 C.3    43  LEU43       0.0297
     31  CG         6.8820    8.7750   -8.8310 C.3    43  LEU43       0.0022
     32  CD1        5.6560    9.3240   -9.5440 C.3    43  LEU43       0.0001
     33  CD2        8.1520    9.3500   -9.4290 C.3    43  LEU43       0.0001
     34  N          5.3160    4.8870   -4.4560 N.3    45  LEU45      -0.1231
     35  CA         4.3700    4.3710   -3.4980 C.3    45  LEU45       0.1693
     36  C          2.9630    4.3880   -4.1330 C.2    45  LEU45       0.2591
     37  O          2.1810    3.4350   -3.9720 O.2    45  LEU45      -0.2718
     38  CB         4.4460    5.2500   -2.2310 C.3    45  LEU45       0.0284
     39  CG         3.8740    4.7030   -0.9100 C.3    45  LEU45       0.0019
     40  CD1        4.2380    5.6430    0.2070 C.3    45  LEU45       0.0001
     41  CD2        2.3650    4.5310   -0.9560 C.3    45  LEU45       0.0001
     42  N          2.6350    5.4690   -4.8700 N.am   46  MET46      -0.1979
     43  CA         1.3490    5.5460   -5.5420 C.3    46  MET46       0.1605
     44  C          1.2110    4.4880   -6.6190 C.2    46  MET46       0.2287
     45  O          0.1060    4.0230   -6.8990 O.2    46  MET46      -0.2864
     46  CB         1.0420    6.9350   -6.0900 C.3    46  MET46       0.0413
     47  CG         0.8350    7.9900   -5.0180 C.3    46  MET46       0.0598
     48  SD         0.1380    9.5060   -5.6830 S.3    46  MET46      -0.1393
     49  CE        -1.4090    8.8740   -6.3430 C.3    46  MET46       0.0692
     50  N         -0.0710    1.6570   -4.7940 N.3    49  ALA49      -0.1245
     51  CA        -1.4720    1.9280   -4.4960 C.3    49  ALA49       0.1562
     52  C         -2.3670    1.6260   -5.7090 C.2    49  ALA49       0.2260
     53  O         -3.3210    0.8470   -5.6060 O.2    49  ALA49      -0.2867
     54  CB        -1.6430    3.3690   -4.0530 C.3    49  ALA49       0.0290
     55  N         -8.3580    5.7160   -4.0430 N.3    60  ILE60      -0.1245
     56  CA        -7.8070    6.3280   -2.8460 C.3    60  ILE60       0.1561
     57  C         -8.1080    7.8460   -2.7990 C.2    60  ILE60       0.2260
     58  O         -7.8670    8.5670   -3.7660 O.2    60  ILE60      -0.2867
     59  CB        -6.2600    6.0780   -2.7820 C.3    60  ILE60       0.0252
     60  CG1       -5.9520    4.5850   -2.5270 C.3    60  ILE60       0.0019
     61  CG2       -5.5620    6.9620   -1.7450 C.3    60  ILE60       0.0019
     62  CD1       -6.5260    4.0440   -1.2210 C.3    60  ILE60       0.0001
     63  N         -7.6630   11.7970   -1.6890 N.3    62  ASP62      -0.1239
     64  CA        -6.4730   12.6640   -1.6560 C.3    62  ASP62       0.1674
     65  C         -6.0280   13.0910   -0.2330 C.2    62  ASP62       0.2266
     66  O         -4.8920   12.7950    0.1680 O.2    62  ASP62      -0.2867
     67  CB        -6.6450   13.8730   -2.6000 C.3    62  ASP62       0.1410
     68  CG        -7.8000   14.7870   -2.2300 C.2    62  ASP62       0.3668
     69  OD1       -8.9570   14.3260   -2.2340 O.co2  62  ASP62      -0.2456
     70  OD2       -7.5540   15.9870   -1.9620 O.co2  62  ASP62      -0.2456
     71  N         -4.6170   10.3700    1.9940 N.3    65  ALA65      -0.1231
     72  CA        -3.3170    9.8110    1.6430 C.3    65  ALA65       0.1694
     73  C         -2.2410   10.3560    2.5740 C.2    65  ALA65       0.2592
     74  O         -1.2290    9.7250    2.8130 O.2    65  ALA65      -0.2718
     75  CB        -2.9740   10.1040    0.1910 C.3    65  ALA65       0.0304
     76  N         -2.5100   11.5220    3.1440 N.am   66  GLY66      -0.1957
     77  CA        -1.5780   12.1180    4.0760 C.3    66  GLY66       0.1869
     78  C         -1.7980   11.6260    5.5040 C.2    66  GLY66       0.2309
     79  O         -1.2890   12.2070    6.4480 O.2    66  GLY66      -0.2863
     80  N         -1.4610    8.2190    6.2150 N.3    68  VAL68      -0.1245
     81  CA        -0.8190    6.9260    6.3190 C.3    68  VAL68       0.1561
     82  C          0.6940    7.0740    6.4730 C.2    68  VAL68       0.2260
     83  O          1.4010    7.4500    5.5370 O.2    68  VAL68      -0.2867
     84  CB        -1.1990    5.9760    5.1220 C.3    68  VAL68       0.0252
     85  CG1       -2.6890    5.6480    5.1540 C.3    68  VAL68       0.0019
     86  CG2       -0.8340    6.5800    3.7680 C.3    68  VAL68       0.0019
     87  N         -2.3940    2.0850    5.8850 N.3    74  LEU74      -0.1245
     88  CA        -2.7550    2.0380    4.4760 C.3    74  LEU74       0.1561
     89  C         -3.6990    0.8430    4.2550 C.2    74  LEU74       0.2260
     90  O         -4.6960    0.9360    3.5230 O.2    74  LEU74      -0.2867
     91  CB        -1.4730    1.8910    3.6210 C.3    74  LEU74       0.0270
     92  CG        -1.4990    2.3900    2.1500 C.3    74  LEU74       0.0019
     93  CD1       -0.1360    2.2100    1.5060 C.3    74  LEU74       0.0001
     94  CD2       -2.5590    1.7030    1.3090 C.3    74  LEU74       0.0001
@<TRIPOS>BOND
     1    32    31    1
     2    33    31    1
     3    31    30    1
     4    30    27    1
     5    29    28    2
     6    45    44    2
     7    28    27    1
     8    44    43    1
     9    27    26    1
    10    49    48    1
    11    46    43    1
    12    46    47    1
    13    52    53    2
    14    52    51    1
    15    48    47    1
    16    43    42    1
    17    26    22   am
    18    42    36   am
    19    50    51    1
    20    51    54    1
    21    34    35    1
    22    23    22    2
    23    22    21    1
    24    36    37    2
    25    36    35    1
    26    55    56    1
    27    19    17   ar
    28    58    57    2
    29    25    24    1
    30    35    38    1
    31    56    57    1
    32    56    59    1
    33    17    16    1
    34    17    18   ar
    35    59    60    1
    36    59    61    1
    37    21    24    1
    38    21    20    1
    39    67    68    1
    40    67    64    1
    41    16    13    1
    42    20    14   am
    43    60    62    1
    44    69    68   ar
    45    38    39    1
    46    68    70   ar
    47    63    64    1
    48    64    65    1
    49    12    13    1
    50    13    14    1
    51    14    15    2
    52    41    39    1
    53    39    40    1
    54    65    66    2
    55    75    72    1
    56    94    92    1
    57    93    92    1
    58    72    71    1
    59    72    73    1
    60    92    91    1
    61    73    74    2
    62    73    76   am
    63     7     9   ar
    64     7     6   ar
    65     4     3    2
    66     9    11   ar
    67    76    77    1
    68     5     6    1
    69     5     2    1
    70     6     8   ar
    71    90    89    2
    72    91    88    1
    73     3     2    1
    74    11    10   ar
    75    86    84    1
    76     2     1    1
    77    77    78    1
    78     8    10   ar
    79    89    88    1
    80    88    87    1
    81    84    85    1
    82    84    81    1
    83    78    79    2
    84    83    82    2
    85    80    81    1
    86    81    82    1
