@<TRIPOS>MOLECULE
tmp/2mwgB00.pdb
 188 174 0 0 0
SMALL
GASTEIGER

@<TRIPOS>ATOM
      1  N         90.3080   47.9290  107.3540 N.3    28  VAL28      -0.1245
      2  CA        90.9470   48.6400  108.4600 C.3    28  VAL28       0.1561
      3  C         91.5880   47.6570  109.4390 C.2    28  VAL28       0.2260
      4  O         91.1880   46.4900  109.5140 O.2    28  VAL28      -0.2867
      5  CB        89.9050   49.4620  109.2310 C.3    28  VAL28       0.0252
      6  CG1       89.3050   50.5430  108.3280 C.3    28  VAL28       0.0019
      7  CG2       88.7940   48.5320  109.7300 C.3    28  VAL28       0.0019
      8  N         92.6660   46.9640  113.4630 N.3    30  THR30      -0.1218
      9  CA        92.3820   47.3130  114.8500 C.3    30  THR30       0.1862
     10  C         93.3970   46.6230  115.7290 C.2    30  THR30       0.2287
     11  O         94.0340   45.6630  115.2970 O.2    30  THR30      -0.2866
     12  CB        90.9720   46.8670  115.2760 C.3    30  THR30       0.1770
     13  OG1       90.7570   45.5260  114.8780 O.3    30  THR30      -0.2211
     14  CG2       89.9110   47.7650  114.6520 C.3    30  THR30       0.0375
     15  N         90.0290   49.4580  124.2510 N.3    36  ASP36      -0.1225
     16  CA        88.8130   49.4190  123.4440 C.3    36  ASP36       0.1805
     17  C         89.1440   49.1350  121.9900 C.2    36  ASP36       0.2597
     18  O         88.4770   49.6460  121.0900 O.2    36  ASP36      -0.2718
     19  CB        88.0550   50.7520  123.5310 C.3    36  ASP36       0.1424
     20  CG        86.6890   50.6160  122.8580 C.2    36  ASP36       0.3668
     21  OD1       86.4510   49.5880  122.2480 O.co2  36  ASP36      -0.2456
     22  OD2       85.8960   51.5380  122.9740 O.co2  36  ASP36      -0.2456
     23  N         90.1440   48.2960  121.7420 N.am   37  ASN37      -0.1974
     24  CA        90.5270   47.9400  120.3810 C.3    37  ASN37       0.1688
     25  C         90.2940   49.0740  119.3870 C.2    37  ASN37       0.2292
     26  O         89.4240   48.9760  118.5180 O.2    37  ASN37      -0.2864
     27  CB        89.7570   46.6870  119.9450 C.3    37  ASN37       0.1181
     28  CG        90.4890   45.9750  118.8110 C.2    37  ASN37       0.2629
     29  OD1       91.5120   46.4630  118.3340 O.2    37  ASN37      -0.2716
     30  ND2       90.0280   44.8390  118.3620 N.am   37  ASN37      -0.0877
     31  N         88.7530   55.0540  102.3630 N.3    46  PHE46      -0.1241
     32  CA        87.7650   54.7980  103.4040 C.3    46  PHE46       0.1605
     33  C         86.9220   56.0600  103.6300 C.2    46  PHE46       0.2264
     34  O         85.7060   55.9980  103.7590 O.2    46  PHE46      -0.2867
     35  CB        88.4610   54.4310  104.7100 C.3    46  PHE46       0.0534
     36  CG        87.4550   54.0330  105.7510 C.ar   46  PHE46      -0.0203
     37  CD1       86.9900   52.7140  105.8140 C.ar   46  PHE46      -0.0042
     38  CD2       87.0120   54.9740  106.6680 C.ar   46  PHE46      -0.0042
     39  CE1       86.0820   52.3430  106.8130 C.ar   46  PHE46      -0.0003
     40  CE2       86.0970   54.6070  107.6630 C.ar   46  PHE46      -0.0003
     41  CZ        85.6380   53.2910  107.7380 C.ar   46  PHE46      -0.0000
     42  N         85.5590   53.4630  117.3280 N.3    61  ASN61      -0.1225
     43  CA        84.9580   52.2410  116.7990 C.3    61  ASN61       0.1785
     44  C         83.9000   52.5760  115.7470 C.2    61  ASN61       0.2597
     45  O         83.2820   53.6380  115.7890 O.2    61  ASN61      -0.2718
     46  CB        84.3490   51.4150  117.9290 C.3    61  ASN61       0.1169
     47  CG        83.7510   50.1290  117.3770 C.2    61  ASN61       0.2627
     48  OD1       82.6160   50.1290  116.9060 O.2    61  ASN61      -0.2716
     49  ND2       84.4580   49.0310  117.3940 N.am   61  ASN61      -0.0877
     50  N         83.7250   51.6760  114.7860 N.am   62  CYS62      -0.1956
     51  CA        82.7630   51.8860  113.6980 C.3    62  CYS62       0.1843
     52  C         81.3110   51.9700  114.2070 C.2    62  CYS62       0.2625
     53  O         80.3640   51.9200  113.4220 O.2    62  CYS62      -0.2714
     54  CB        82.9210   50.7490  112.6810 C.3    62  CYS62       0.0997
     55  SG        84.6130   50.7690  112.0280 S.3    62  CYS62      -0.0797
     56  N         81.1700   52.0350  115.5260 N.am   63  ARG63      -0.1977
     57  CA        79.8570   52.0520  116.1730 C.3    63  ARG63       0.1597
     58  C         79.0040   53.2640  115.7420 C.2    63  ARG63       0.2287
     59  O         77.7860   53.1460  115.5740 O.2    63  ARG63      -0.2864
     60  CB        79.9870   51.9430  117.7250 C.3    63  ARG63       0.0334
     61  CG        80.6400   53.1670  118.3870 C.3    63  ARG63       0.0492
     62  CD        80.7340   52.9420  119.9220 C.3    63  ARG63       0.2205
     63  NE        81.3140   54.1620  120.4860 N.pl3  63  ARG63      -0.0865
     64  CZ        82.6300   54.2010  120.5380 C.cat  63  ARG63       0.5346
     65  NH1       83.3190   53.8340  121.6160 N.pl3  63  ARG63       0.1354
     66  NH2       83.2270   54.9540  119.6710 N.pl3  63  ARG63       0.1354
     67  N         78.6040   54.4630  112.8550 N.3    65  LEU65      -0.1231
     68  CA        77.9150   54.2140  111.5930 C.3    65  LEU65       0.1693
     69  C         76.5110   53.6870  111.8680 C.2    65  LEU65       0.2591
     70  O         75.5720   53.9860  111.1190 O.2    65  LEU65      -0.2718
     71  CB        78.7170   53.1900  110.7940 C.3    65  LEU65       0.0284
     72  CG        80.0300   53.8160  110.3050 C.3    65  LEU65       0.0019
     73  CD1       80.9230   52.7230  109.7090 C.3    65  LEU65       0.0001
     74  CD2       79.7450   54.8920  109.2370 C.3    65  LEU65       0.0001
     75  N         76.4130   52.7960  112.8570 N.am   66  GLN66      -0.1979
     76  CA        75.1460   52.1340  113.1770 C.3    66  GLN66       0.1601
     77  C         74.0380   53.1860  113.3580 C.2    66  GLN66       0.2287
     78  O         74.3020   54.2610  113.8800 O.2    66  GLN66      -0.2864
     79  CB        75.3540   51.3180  114.4540 C.3    66  GLN66       0.0394
     80  CG        76.3010   50.1550  114.1410 C.3    66  GLN66       0.0908
     81  CD        76.6080   49.3460  115.3970 C.2    66  GLN66       0.2608
     82  OE1       76.0610   49.6180  116.4650 O.2    66  GLN66      -0.2717
     83  NE2       77.4650   48.3590  115.3290 N.am   66  GLN66      -0.0878
     84  N         74.0520   42.5490  114.5730 N.3    75  VAL75      -0.1245
     85  CA        74.9850   43.0450  115.5900 C.3    75  VAL75       0.1561
     86  C         75.2820   41.9350  116.5980 C.2    75  VAL75       0.2260
     87  O         76.4320   41.7220  116.9770 O.2    75  VAL75      -0.2867
     88  CB        74.3670   44.2710  116.2870 C.3    75  VAL75       0.0252
     89  CG1       75.2410   44.7140  117.4640 C.3    75  VAL75       0.0019
     90  CG2       74.2520   45.4080  115.2660 C.3    75  VAL75       0.0019
     91  N         77.6340   39.2860  115.4160 N.3    78  ILE78      -0.1231
     92  CA        79.0230   39.7300  115.4480 C.3    78  ILE78       0.1692
     93  C         79.5920   39.6240  116.8470 C.2    78  ILE78       0.2591
     94  O         80.7280   39.1830  117.0350 O.2    78  ILE78      -0.2718
     95  CB        79.1130   41.1840  114.9770 C.3    78  ILE78       0.0266
     96  CG1       78.7720   41.2600  113.4860 C.3    78  ILE78       0.0019
     97  CG2       80.5300   41.7180  115.2110 C.3    78  ILE78       0.0020
     98  CD1       78.5810   42.7260  113.0850 C.3    78  ILE78       0.0001
     99  N         78.8130   40.0440  117.8170 N.am   79  ARG79      -0.1980
    100  CA        79.2250   40.0110  119.2100 C.3    79  ARG79       0.1597
    101  C         79.4880   38.5520  119.6060 C.2    79  ARG79       0.2287
    102  O         80.4950   38.2430  120.2620 O.2    79  ARG79      -0.2864
    103  CB        78.0780   40.6730  120.0020 C.3    79  ARG79       0.0334
    104  CG        78.3340   40.8270  121.5120 C.3    79  ARG79       0.0492
    105  CD        77.0890   41.5220  122.0750 C.3    79  ARG79       0.2205
    106  NE        77.1990   41.9020  123.5060 N.pl3  79  ARG79      -0.0865
    107  CZ        76.0870   42.5120  123.8310 C.cat  79  ARG79       0.5346
    108  NH1       75.0570   41.7570  124.1040 N.pl3  79  ARG79       0.1354
    109  NH2       76.0530   43.7760  124.2400 N.pl3  79  ARG79       0.1354
    110  N         82.9190   37.2030  117.9520 N.3    82  LEU82      -0.1245
    111  CA        84.1560   37.6640  118.5640 C.3    82  LEU82       0.1561
    112  C         84.4230   36.8670  119.8350 C.2    82  LEU82       0.2260
    113  O         85.5480   36.4540  120.1020 O.2    82  LEU82      -0.2867
    114  CB        84.0670   39.1500  118.9000 C.3    82  LEU82       0.0270
    115  CG        84.0510   39.9870  117.6140 C.3    82  LEU82       0.0019
    116  CD1       83.7140   41.4330  117.9770 C.3    82  LEU82       0.0001
    117  CD2       85.4270   39.9460  116.9260 C.3    82  LEU82       0.0001
    118  N         75.1510   44.5940  107.0650 N.3    92  ILE92      -0.1245
    119  CA        74.5270   45.5220  108.0090 C.3    92  ILE92       0.1561
    120  C         74.3780   46.9050  107.4150 C.2    92  ILE92       0.2260
    121  O         75.3220   47.4610  106.8550 O.2    92  ILE92      -0.2867
    122  CB        75.3700   45.5630  109.2990 C.3    92  ILE92       0.0252
    123  CG1       74.6600   46.3780  110.3800 C.3    92  ILE92       0.0019
    124  CG2       76.7330   46.1980  109.0090 C.3    92  ILE92       0.0019
    125  CD1       75.3540   46.1280  111.7300 C.3    92  ILE92       0.0001
    126  N         74.1470   50.8960  107.2530 N.3    94  ASN94      -0.1240
    127  CA        74.9070   51.9370  107.9350 C.3    94  ASN94       0.1653
    128  C         74.4140   53.3460  107.5400 C.2    94  ASN94       0.2266
    129  O         73.5900   53.5170  106.6280 O.2    94  ASN94      -0.2867
    130  CB        76.4020   51.7430  107.6090 C.3    94  ASN94       0.1155
    131  CG        76.9710   50.5420  108.3840 C.2    94  ASN94       0.2627
    132  OD1       77.9810   49.9660  107.9780 O.2    94  ASN94      -0.2716
    133  ND2       76.3940   50.1320  109.4880 N.am   94  ASN94      -0.0877
    134  N         76.5710   47.7680  104.0600 N.3   104  ASN104     -0.1240
    135  CA        77.9800   47.5060  104.3270 C.3   104  ASN104      0.1653
    136  C         78.2590   46.0740  104.7590 C.2   104  ASN104      0.2266
    137  O         77.9060   45.6380  105.8580 O.2   104  ASN104     -0.2867
    138  CB        78.4200   48.4450  105.4400 C.3   104  ASN104      0.1155
    139  CG        79.9110   48.3220  105.7130 C.2   104  ASN104      0.2627
    140  OD1       80.5890   47.4810  105.1230 O.2   104  ASN104     -0.2716
    141  ND2       80.4640   49.1290  106.5770 N.am  104  ASN104     -0.0877
    142  N         80.3660   43.2720  106.2880 N.3   106  LEU106     -0.1245
    143  CA        81.4660   43.2150  107.2550 C.3   106  LEU106      0.1561
    144  C         82.0050   41.7970  107.4200 C.2   106  LEU106      0.2260
    145  O         81.2620   40.8730  107.7610 O.2   106  LEU106     -0.2867
    146  CB        80.9600   43.7290  108.6150 C.3   106  LEU106      0.0270
    147  CG        82.1140   43.8380  109.6250 C.3   106  LEU106      0.0019
    148  CD1       83.1770   44.8350  109.1380 C.3   106  LEU106      0.0001
    149  CD2       81.5450   44.3080  110.9620 C.3   106  LEU106      0.0001
    150  N         84.9700   39.6940  109.5770 N.3   108  ILE108     -0.1245
    151  CA        85.9190   39.7210  110.6930 C.3   108  ILE108      0.1561
    152  C         86.6140   38.3690  110.8010 C.2   108  ILE108      0.2260
    153  O         85.9540   37.3350  110.7880 O.2   108  ILE108     -0.2867
    154  CB        85.2250   40.1070  112.0030 C.3   108  ILE108      0.0252
    155  CG1       84.6860   41.5350  111.8690 C.3   108  ILE108      0.0019
    156  CG2       86.2370   40.0630  113.1530 C.3   108  ILE108      0.0019
    157  CD1       83.7670   41.8520  113.0490 C.3   108  ILE108      0.0001
    158  N         92.4730   41.9550  115.0520 N.3   119  PHE119     -0.1227
    159  CA        91.1520   41.9710  114.3900 C.3   119  PHE119      0.1736
    160  C         91.1580   42.8790  113.1770 C.2   119  PHE119      0.2595
    161  O         91.7730   43.9450  113.1940 O.2   119  PHE119     -0.2718
    162  CB        90.0560   42.4720  115.3470 C.3   119  PHE119      0.0547
    163  CG        89.7740   41.4600  116.4240 C.ar  119  PHE119     -0.0202
    164  CD1       88.8770   40.4120  116.1800 C.ar  119  PHE119     -0.0042
    165  CD2       90.3980   41.5760  117.6700 C.ar  119  PHE119     -0.0042
    166  CE1       88.6080   39.4770  117.1840 C.ar  119  PHE119     -0.0003
    167  CE2       90.1270   40.6430  118.6740 C.ar  119  PHE119     -0.0003
    168  CZ        89.2330   39.5920  118.4320 C.ar  119  PHE119     -0.0000
    169  N         90.5230   42.4300  112.1020 N.am  120  VAL120     -0.1966
    170  CA        90.5020   43.1810  110.8430 C.3   120  VAL120      0.1727
    171  C         89.0700   43.3130  110.3510 C.2   120  VAL120      0.2616
    172  O         88.2990   42.3510  110.3680 O.2   120  VAL120     -0.2715
    173  CB        91.3090   42.4380  109.7630 C.3   120  VAL120      0.0290
    174  CG1       90.8590   40.9750  109.7000 C.3   120  VAL120      0.0023
    175  CG2       91.0730   43.0870  108.3880 C.3   120  VAL120      0.0023
    176  N         88.7210   44.5140  109.9080 N.am  121  GLY121     -0.1955
    177  CA        87.3880   44.7700  109.4170 C.3   121  GLY121      0.1869
    178  C         87.3970   45.0510  107.9190 C.2   121  GLY121      0.2309
    179  O         88.0980   45.9420  107.4410 O.2   121  GLY121     -0.2863
    180  N         85.1200   45.9800  104.5830 N.3   123  GLN123     -0.1245
    181  CA        83.8430   46.5140  104.1430 C.3   123  GLN123      0.1566
    182  C         83.7870   46.4750  102.6260 C.2   123  GLN123      0.2260
    183  O         84.6370   47.0540  101.9400 O.2   123  GLN123     -0.2867
    184  CB        83.6310   47.9530  104.6420 C.3   123  GLN123      0.0367
    185  CG        83.7180   48.0190  106.1850 C.3   123  GLN123      0.0905
    186  CD        85.1520   48.2940  106.6340 C.2   123  GLN123      0.2608
    187  OE1       85.8990   48.9840  105.9460 O.2   123  GLN123     -0.2717
    188  NE2       85.5800   47.8030  107.7600 N.am  123  GLN123     -0.0878
@<TRIPOS>BOND
     1   183   182    2
     2    31    32    1
     3   182   181    1
     4    32    33    1
     5    32    35    1
     6    33    34    2
     7   134   135    1
     8   181   180    1
     9   181   184    1
    10   135   136    1
    11   135   138    1
    12   184   185    1
    13    35    36    1
    14   136   137    2
    15   140   139    2
    16   138   139    1
    17   139   141   am
    18    36    37   ar
    19    36    38   ar
    20    37    39   ar
    21   187   186    2
    22   185   186    1
    23   142   143    1
    24   129   128    2
    25   186   188   am
    26    38    40   ar
    27    39    41   ar
    28   121   120    2
    29   118   119    1
    30   126   127    1
    31   143   144    1
    32   143   146    1
    33     1     2    1
    34   120   119    1
    35   144   145    2
    36   179   178    2
    37   128   127    1
    38   130   127    1
    39   130   131    1
    40    40    41   ar
    41   178   177    1
    42   132   131    2
    43   119   122    1
    44     6     5    1
    45   131   133   am
    46   175   173    1
    47     2     5    1
    48     2     3    1
    49   146   147    1
    50   124   122    1
    51   148   147    1
    52     5     7    1
    53    74    72    1
    54   122   123    1
    55   177   176    1
    56     3     4    2
    57   150   151    1
    58   147   149    1
    59   174   173    1
    60    73    72    1
    61   173   170    1
    62   176   171   am
    63    72    71    1
    64   171   172    2
    65   171   170    1
    66   123   125    1
    67   151   152    1
    68   151   154    1
    69   153   152    2
    70    71    68    1
    71   170   169    1
    72    70    69    2
    73    68    69    1
    74    68    67    1
    75    69    75   am
    76   155   154    1
    77   155   157    1
    78   154   156    1
    79    55    54    1
    80   169   160   am
    81    54    51    1
    82    75    76    1
    83    98    96    1
    84   160   161    2
    85   160   159    1
    86    76    77    1
    87    76    79    1
    88    77    78    2
    89    53    52    2
    90     8     9    1
    91    96    95    1
    92    51    52    1
    93    51    50    1
    94    80    79    1
    95    80    81    1
    96    52    56   am
    97   159   158    1
    98   159   162    1
    99    84    85    1
   100    14    12    1
   101    50    44   am
   102     9    12    1
   103     9    10    1
   104    13    12    1
   105    95    97    1
   106    95    92    1
   107    90    88    1
   108    11    10    2
   109    83    81   am
   110   162   163    1
   111    81    82    2
   112    91    92    1
   113    92    93    1
   114    56    57    1
   115    59    58    2
   116    85    88    1
   117    85    86    1
   118    58    57    1
   119    44    45    2
   120    44    43    1
   121    57    60    1
   122   164   163   ar
   123   164   166   ar
   124    88    89    1
   125   163   165   ar
   126    86    87    2
   127    43    42    1
   128    43    46    1
   129    93    94    2
   130    93    99   am
   131    48    47    2
   132   117   115    1
   133   166   168   ar
   134    47    49   am
   135    47    46    1
   136   115   116    1
   137   115   114    1
   138   165   167   ar
   139    60    61    1
   140    99   100    1
   141   110   111    1
   142    29    28    2
   143    30    28   am
   144    61    62    1
   145   168   167   ar
   146    26    25    2
   147   111   114    1
   148   111   112    1
   149    28    27    1
   150   100   101    1
   151   100   103    1
   152    25    24    1
   153   101   102    2
   154    66    64    1
   155   112   113    2
   156    62    63    1
   157    27    24    1
   158   103   104    1
   159    24    23    1
   160    63    64    2
   161    64    65    1
   162    18    17    2
   163   104   105    1
   164    23    17   am
   165    17    16    1
   166   105   106    1
   167    21    20   ar
   168    20    22   ar
   169    20    19    1
   170    16    19    1
   171    16    15    1
   172   106   107    2
   173   107   108    1
   174   107   109    1
