@<TRIPOS>MOLECULE
tmp/2mx6A00.pdb
 129 122 0 0 0
SMALL
GASTEIGER

@<TRIPOS>ATOM
      1  N        -10.8310    4.8310    4.2660 N.3    14  PHE14      -0.1227
      2  CA        -9.4170    4.5850    4.5190 C.3    14  PHE14       0.1736
      3  C         -9.0130    3.2060    4.0150 C.2    14  PHE14       0.2595
      4  O         -9.8690    2.3580    3.7380 O.2    14  PHE14      -0.2718
      5  CB        -9.0970    4.7280    6.0170 C.3    14  PHE14       0.0547
      6  CG        -9.8390    3.7730    6.9140 C.ar   14  PHE14      -0.0202
      7  CD1      -11.1820    3.9700    7.2060 C.ar   14  PHE14      -0.0042
      8  CD2       -9.1910    2.6840    7.4720 C.ar   14  PHE14      -0.0042
      9  CE1      -11.8590    3.0970    8.0380 C.ar   14  PHE14      -0.0003
     10  CE2       -9.8610    1.8100    8.3050 C.ar   14  PHE14      -0.0003
     11  CZ       -11.1970    2.0160    8.5860 C.ar   14  PHE14      -0.0000
     12  N         -7.7100    2.9880    3.8990 N.am   15  LEU15      -0.1966
     13  CA        -7.1840    1.7170    3.4330 C.3    15  LEU15       0.1728
     14  C         -7.2040    0.7110    4.5740 C.2    15  LEU15       0.2617
     15  O         -7.8070   -0.3610    4.4670 O.2    15  LEU15      -0.2715
     16  CB        -5.7600    1.8960    2.8860 C.3    15  LEU15       0.0311
     17  CG        -5.6630    2.2920    1.4050 C.3    15  LEU15       0.0022
     18  CD1       -4.2750    1.9860    0.8650 C.3    15  LEU15       0.0001
     19  CD2       -6.7180    1.5770    0.5740 C.3    15  LEU15       0.0001
     20  N         -6.5540    1.0720    5.6670 N.am   16  GLY16      -0.1940
     21  CA        -6.5210    0.2160    6.8300 C.3    16  GLY16       0.2014
     22  C         -5.3170   -0.6960    6.8480 C.2    16  GLY16       0.2639
     23  O         -5.4390   -1.8790    7.1700 O.2    16  GLY16      -0.2714
     24  N         -4.1550   -0.1570    6.5090 N.am   17  ILE17      -0.1963
     25  CA        -2.9300   -0.9480    6.4920 C.3    17  ILE17       0.1727
     26  C         -1.7290   -0.1590    6.9960 C.2    17  ILE17       0.2617
     27  O         -1.6610    1.0680    6.8680 O.2    17  ILE17      -0.2715
     28  CB        -2.5940   -1.4830    5.0810 C.3    17  ILE17       0.0290
     29  CG1       -2.8890   -0.4240    4.0160 C.3    17  ILE17       0.0022
     30  CG2       -3.3620   -2.7640    4.7970 C.3    17  ILE17       0.0023
     31  CD1       -2.3270   -0.7600    2.6520 C.3    17  ILE17       0.0001
     32  N         -0.7930   -0.8880    7.5790 N.am   18  SER18      -0.1936
     33  CA         0.4380   -0.3130    8.0800 C.3    18  SER18       0.2055
     34  C          1.5270   -0.5480    7.0460 C.2    18  SER18       0.2642
     35  O          1.6770   -1.6620    6.5410 O.2    18  SER18      -0.2714
     36  CB         0.8220   -0.9630    9.4110 C.3    18  SER18       0.2130
     37  OG         1.9380   -0.3190   10.0000 O.3    18  SER18      -0.2179
     38  N          2.2690    0.4900    6.7070 N.am   19  ILE19      -0.1977
     39  CA         3.3190    0.3600    5.7140 C.3    19  ILE19       0.1596
     40  C          4.6790    0.1790    6.3850 C.2    19  ILE19       0.2287
     41  O          5.1600    1.0660    7.0930 O.2    19  ILE19      -0.2864
     42  CB         3.3650    1.5730    4.7550 C.3    19  ILE19       0.0276
     43  CG1        1.9500    2.0700    4.4060 C.3    19  ILE19       0.0022
     44  CG2        4.1150    1.2030    3.4860 C.3    19  ILE19       0.0022
     45  CD1        1.0610    1.0030    3.8080 C.3    19  ILE19       0.0001
     46  N          8.6160   -0.0110    6.4110 N.3    21  GLY21      -0.1225
     47  CA         9.7210    0.5290    5.6440 C.3    21  GLY21       0.1811
     48  C         10.9980   -0.2690    5.8320 C.2    21  GLY21       0.2280
     49  O         11.8040    0.0360    6.7130 O.2    21  GLY21      -0.2866
     50  N          0.2100   -4.5780    9.6120 N.3    35  SER35      -0.1217
     51  CA        -1.0640   -4.9360   10.2090 C.3    35  SER35       0.1889
     52  C         -2.2340   -4.3790    9.4030 C.2    35  SER35       0.2288
     53  O         -2.1850   -3.2470    8.9160 O.2    35  SER35      -0.2866
     54  CB        -1.1270   -4.4030   11.6370 C.3    35  SER35       0.2089
     55  OG         0.1530   -3.9820   12.0790 O.3    35  SER35      -0.2183
     56  N         -6.2040   -3.2760    9.3430 N.3    37  MET37      -0.1245
     57  CA        -7.2500   -2.8030   10.2400 C.3    37  MET37       0.1570
     58  C         -8.6290   -3.2090    9.7330 C.2    37  MET37       0.2261
     59  O         -8.9310   -3.0680    8.5450 O.2    37  MET37      -0.2867
     60  CB        -7.1720   -1.2830   10.3820 C.3    37  MET37       0.0387
     61  CG        -5.8440   -0.7830   10.9300 C.3    37  MET37       0.0595
     62  SD        -5.6260   -1.1390   12.6840 S.3    37  MET37      -0.1393
     63  CE        -4.6290   -2.6280   12.6200 C.3    37  MET37       0.0692
     64  N         11.7570    4.3010    0.5770 N.3    67  ASN67      -0.1225
     65  CA        10.6760    3.8880    1.4730 C.3    67  ASN67       0.1785
     66  C          9.8270    5.0820    1.8990 C.2    67  ASN67       0.2597
     67  O          8.5980    5.0080    1.9200 O.2    67  ASN67      -0.2718
     68  CB        11.2480    3.2020    2.7170 C.3    67  ASN67       0.1169
     69  CG        12.1270    2.0100    2.3900 C.2    67  ASN67       0.2627
     70  OD1       11.8780    1.2720    1.4380 O.2    67  ASN67      -0.2716
     71  ND2       13.1770    1.8240    3.1730 N.am   67  ASN67      -0.0877
     72  N         10.4930    6.1800    2.2340 N.am   68  ASP68      -0.1974
     73  CA         9.8070    7.3970    2.6650 C.3    68  ASP68       0.1709
     74  C          8.9490    7.9620    1.5430 C.2    68  ASP68       0.2293
     75  O          7.7540    8.1940    1.7210 O.2    68  ASP68      -0.2864
     76  CB        10.8160    8.4550    3.1160 C.3    68  ASP68       0.1436
     77  CG        11.5530    8.0650    4.3790 C.2    68  ASP68       0.3671
     78  OD1       10.9240    8.0310    5.4550 O.co2  68  ASP68      -0.2456
     79  OD2       12.7710    7.7990    4.3010 O.co2  68  ASP68      -0.2456
     80  N          5.6650    5.8340    0.7170 N.3    71  VAL71      -0.1231
     81  CA         4.5060    6.0340    1.5820 C.3    71  VAL71       0.1692
     82  C          3.9880    7.4600    1.4830 C.2    71  VAL71       0.2591
     83  O          2.7880    7.6980    1.6360 O.2    71  VAL71      -0.2718
     84  CB         4.8000    5.6960    3.0590 C.3    71  VAL71       0.0266
     85  CG1        3.5030    5.4870    3.8240 C.3    71  VAL71       0.0020
     86  CG2        5.6830    4.4630    3.1550 C.3    71  VAL71       0.0020
     87  N          4.8910    8.4020    1.2270 N.am   72  ARG72      -0.1980
     88  CA         4.5110    9.8020    1.0890 C.3    72  ARG72       0.1597
     89  C          3.4440    9.9480    0.0150 C.2    72  ARG72       0.2287
     90  O          2.3830   10.5220    0.2590 O.2    72  ARG72      -0.2864
     91  CB         5.7240   10.6630    0.7380 C.3    72  ARG72       0.0334
     92  CG         6.5120   11.1310    1.9490 C.3    72  ARG72       0.0492
     93  CD         7.8050   11.8150    1.5360 C.3    72  ARG72       0.2205
     94  NE         8.5440   12.3250    2.6850 N.pl3  72  ARG72      -0.0865
     95  CZ         9.8720   12.2850    2.8000 C.cat  72  ARG72       0.5346
     96  NH1       10.6200   11.7710    1.8250 N.pl3  72  ARG72       0.1354
     97  NH2       10.4510   12.7680    3.8900 N.pl3  72  ARG72       0.1354
     98  N          1.7920    7.4440   -1.3600 N.3    74  LEU74      -0.1231
     99  CA         0.7100    6.5220   -1.0230 C.3    74  LEU74       0.1693
    100  C         -0.3580    7.2270   -0.1960 C.2    74  LEU74       0.2591
    101  O         -1.5470    7.1620   -0.5060 O.2    74  LEU74      -0.2718
    102  CB         1.2510    5.3220   -0.2380 C.3    74  LEU74       0.0284
    103  CG         0.2090    4.2650    0.1500 C.3    74  LEU74       0.0019
    104  CD1       -0.6390    3.8650   -1.0430 C.3    74  LEU74       0.0001
    105  CD2        0.8940    3.0460    0.7400 C.3    74  LEU74       0.0001
    106  N          0.0830    7.9210    0.8430 N.am   75  ARG75      -0.1980
    107  CA        -0.8270    8.6340    1.7230 C.3    75  ARG75       0.1597
    108  C         -1.5810    9.7180    0.9690 C.2    75  ARG75       0.2287
    109  O         -2.7570    9.9500    1.2270 O.2    75  ARG75      -0.2864
    110  CB        -0.0740    9.2240    2.9160 C.3    75  ARG75       0.0334
    111  CG         0.5270    8.1630    3.8250 C.3    75  ARG75       0.0492
    112  CD         1.1160    8.7750    5.0850 C.3    75  ARG75       0.2205
    113  NE         0.1330    9.5400    5.8510 N.pl3  75  ARG75      -0.0865
    114  CZ         0.2640   10.8340    6.1520 C.cat  75  ARG75       0.5346
    115  NH1        1.3290   11.5180    5.7440 N.pl3  75  ARG75       0.1354
    116  NH2       -0.6710   11.4390    6.8720 N.pl3  75  ARG75       0.1354
    117  N         -4.3770    7.9930   -0.9020 N.3    78  VAL78      -0.1231
    118  CA        -5.4090    7.5300    0.0200 C.3    78  VAL78       0.1692
    119  C         -6.1760    8.7210    0.6050 C.2    78  VAL78       0.2592
    120  O         -7.3180    8.5910    1.0510 O.2    78  VAL78      -0.2718
    121  CB        -4.8120    6.6550    1.1530 C.3    78  VAL78       0.0266
    122  CG1       -5.9090    6.1180    2.0610 C.3    78  VAL78       0.0020
    123  CG2       -4.0050    5.5100    0.5610 C.3    78  VAL78       0.0020
    124  N         -5.5500    9.8920    0.5690 N.am   79  SER79      -0.1952
    125  CA        -6.1730   11.1080    1.0690 C.3    79  SER79       0.1924
    126  C         -6.9440   11.8060   -0.0510 C.2    79  SER79       0.2314
    127  O         -7.0260   13.0330   -0.0920 O.2    79  SER79      -0.2863
    128  CB        -5.1140   12.0510    1.6510 C.3    79  SER79       0.2116
    129  OG        -4.3540   11.4070    2.6610 O.3    79  SER79      -0.2180
@<TRIPOS>BOND
     1    98    99    1
     2   104   103    1
     3    99   102    1
     4    99   100    1
     5   117   118    1
     6   101   100    2
     7   102   103    1
     8   100   106   am
     9   127   126    2
    10   126   125    1
    11    89    90    2
    12    89    88    1
    13   118   119    1
    14   118   121    1
    15   103   105    1
    16   123   121    1
    17   124   119   am
    18   124   125    1
    19    19    17    1
    20    64    65    1
    21   119   120    2
    22    80    81    1
    23    91    88    1
    24    91    92    1
    25   106   107    1
    26    18    17    1
    27   108   109    2
    28   108   107    1
    29   125   128    1
    30    88    87    1
    31   121   122    1
    32    87    82   am
    33    17    16    1
    34    70    69    2
    35    65    66    1
    36    65    68    1
    37    82    81    1
    38    82    83    2
    39    93    92    1
    40    93    94    1
    41    74    75    2
    42    74    73    1
    43    81    84    1
    44   128   129    1
    45   107   110    1
    46    96    95    1
    47    66    67    2
    48    66    72   am
    49    72    73    1
    50    69    68    1
    51    69    71   am
    52    31    29    1
    53    73    76    1
    54    94    95    2
    55    95    97    1
    56    16    13    1
    57   110   111    1
    58    84    86    1
    59    84    85    1
    60    76    77    1
    61    13    12    1
    62    13    14    1
    63    44    42    1
    64     4     3    2
    65    45    43    1
    66   111   112    1
    67    12     3   am
    68     3     2    1
    69    29    28    1
    70     1     2    1
    71    79    77   ar
    72    77    78   ar
    73    43    42    1
    74    15    14    2
    75     2     5    1
    76    14    20   am
    77    42    39    1
    78    30    28    1
    79    28    25    1
    80   112   113    1
    81    47    48    1
    82    47    46    1
    83    20    21    1
    84    39    40    1
    85    39    38    1
    86   115   114    1
    87    48    49    2
    88   113   114    2
    89     5     6    1
    90   114   116    1
    91    40    41    2
    92    25    24    1
    93    25    26    1
    94    24    22   am
    95    35    34    2
    96    38    34   am
    97    21    22    1
    98    22    23    2
    99    27    26    2
   100     6     7   ar
   101     6     8   ar
   102    26    32   am
   103    34    33    1
   104     7     9   ar
   105     8    10   ar
   106    32    33    1
   107     9    11   ar
   108    33    36    1
   109    10    11   ar
   110    59    58    2
   111    53    52    2
   112    56    57    1
   113    52    51    1
   114    36    37    1
   115    50    51    1
   116    58    57    1
   117    51    54    1
   118    57    60    1
   119    60    61    1
   120    61    62    1
   121    54    55    1
   122    63    62    1
