@<TRIPOS>MOLECULE
tmp/2mziA00.pdb
 96 94 0 0 0
SMALL
GASTEIGER

@<TRIPOS>ATOM
      1  N         37.7700   40.5190   57.7420 N.3    92  TYR92      -0.1241
      2  CA        36.4360   40.7710   57.2330 C.3    92  TYR92       0.1605
      3  C         35.5550   41.6630   58.0940 C.2    92  TYR92       0.2264
      4  O         35.7310   41.7180   59.3100 O.2    92  TYR92      -0.2867
      5  CB        35.7220   39.5350   56.6840 C.3    92  TYR92       0.0534
      6  CG        35.2960   38.6130   57.8010 C.ar   92  TYR92      -0.0201
      7  CD1       36.2560   37.8200   58.4420 C.ar   92  TYR92      -0.0009
      8  CD2       33.9240   38.4270   58.0080 C.ar   92  TYR92      -0.0009
      9  CE1       35.8290   36.9620   59.4610 C.ar   92  TYR92       0.0417
     10  CE2       33.5370   37.4930   58.9780 C.ar   92  TYR92       0.0417
     11  CZ        34.4690   36.7860   59.7490 C.ar   92  TYR92       0.1957
     12  OH        34.1480   35.8810   60.7170 O.3    92  TYR92      -0.2866
     13  N         30.3640   35.0290   58.0360 N.3   111  SER111     -0.1217
     14  CA        31.1730   34.3380   59.0200 C.3   111  SER111      0.1889
     15  C         31.1090   32.8190   58.9320 C.2   111  SER111      0.2288
     16  O         32.1540   32.1930   59.0860 O.2   111  SER111     -0.2866
     17  CB        30.9330   34.9940   60.3790 C.3   111  SER111      0.2089
     18  OG        31.9570   34.7080   61.3050 O.3   111  SER111     -0.2183
     19  N         32.9350   32.2040   55.0110 N.3   114  LEU114     -0.1231
     20  CA        34.3730   32.2330   55.1770 C.3   114  LEU114      0.1693
     21  C         34.9970   31.1900   56.0930 C.2   114  LEU114      0.2592
     22  O         36.1440   30.7920   55.8950 O.2   114  LEU114     -0.2718
     23  CB        34.8490   33.6220   55.6060 C.3   114  LEU114      0.0284
     24  CG        34.5790   34.8670   54.7590 C.3   114  LEU114      0.0019
     25  CD1       34.7430   36.1480   55.5730 C.3   114  LEU114      0.0001
     26  CD2       35.5360   34.8780   53.5650 C.3   114  LEU114      0.0001
     27  N         34.2210   30.6990   57.0630 N.am  115  ASN115     -0.1974
     28  CA        34.7060   29.5970   57.8680 C.3   115  ASN115      0.1688
     29  C         34.5940   28.2620   57.1420 C.2   115  ASN115      0.2292
     30  O         35.3660   27.3450   57.4120 O.2   115  ASN115     -0.2864
     31  CB        33.7960   29.4440   59.0880 C.3   115  ASN115      0.1181
     32  CG        34.2050   28.4140   60.1320 C.2   115  ASN115      0.2629
     33  OD1       33.5420   27.4090   60.3830 O.2   115  ASN115     -0.2716
     34  ND2       35.2330   28.6180   60.9580 N.am  115  ASN115     -0.0877
     35  N         37.5590   28.4320   54.9840 N.3   118  GLY118     -0.1210
     36  CA        38.6020   28.6770   55.9620 C.3   118  GLY118      0.1956
     37  C         39.4600   27.4900   56.3770 C.2   118  GLY118      0.2611
     38  O         40.6840   27.5410   56.2530 O.2   118  GLY118     -0.2717
     39  N         38.7680   26.4240   56.7810 N.am  119  LYS119     -0.1979
     40  CA        39.3450   25.1920   57.2770 C.3   119  LYS119      0.1596
     41  C         40.3850   24.4830   56.4220 C.2   119  LYS119      0.2287
     42  O         41.2940   23.8120   56.9050 O.2   119  LYS119     -0.2864
     43  CB        38.2460   24.1680   57.5670 C.3   119  LYS119      0.0298
     44  CG        37.2150   23.9280   56.4630 C.3   119  LYS119      0.0038
     45  CD        36.6710   22.5000   56.4530 C.3   119  LYS119      0.0206
     46  CE        35.9120   22.1200   57.7270 C.3   119  LYS119      0.1093
     47  NZ        35.7170   20.6610   57.7020 N.3   119  LYS119     -0.1314
     48  N         44.9520   29.7130   55.3930 N.3   123  LEU123     -0.1231
     49  CA        44.5280   31.0800   55.6220 C.3   123  LEU123      0.1693
     50  C         43.4700   31.1970   56.7120 C.2   123  LEU123      0.2592
     51  O         42.6290   30.3070   56.7960 O.2   123  LEU123     -0.2718
     52  CB        43.9920   31.5480   54.2690 C.3   123  LEU123      0.0284
     53  CG        44.8770   32.6790   53.7470 C.3   123  LEU123      0.0019
     54  CD1       46.1910   32.1420   53.1770 C.3   123  LEU123      0.0001
     55  CD2       44.0650   33.4550   52.7110 C.3   123  LEU123      0.0001
     56  N         43.5790   32.1430   57.6480 N.am  124  HIS124     -0.1965
     57  CA        42.6750   32.4450   58.7390 C.3   124  HIS124      0.1742
     58  C         42.0490   33.8000   58.4420 C.2   124  HIS124      0.2617
     59  O         42.7250   34.8170   58.2980 O.2   124  HIS124     -0.2715
     60  CB        43.5920   32.4620   59.9600 C.3   124  HIS124      0.0500
     61  CG        42.9450   32.7410   61.2880 C.3   124  HIS124      0.0940
     62  ND1       43.7280   32.6060   62.4180 N.3   124  HIS124     -0.1997
     63  CD2       41.6410   32.6550   61.7050 C.3   124  HIS124      0.1077
     64  CE1       42.8370   32.6770   63.4240 C.3   124  HIS124      0.1782
     65  NE2       41.5490   32.7820   63.0900 N.3   124  HIS124     -0.1983
     66  N         40.7220   33.8360   58.5750 N.am  125  PHE125     -0.1960
     67  CA        39.8950   35.0250   58.5420 C.3   125  PHE125      0.1771
     68  C         39.4900   35.3940   59.9620 C.2   125  PHE125      0.2620
     69  O         38.8170   34.6030   60.6170 O.2   125  PHE125     -0.2715
     70  CB        38.6090   34.7000   57.7840 C.3   125  PHE125      0.0574
     71  CG        38.8160   34.3510   56.3280 C.ar  125  PHE125     -0.0200
     72  CD1       39.1140   35.4680   55.5400 C.ar  125  PHE125     -0.0042
     73  CD2       38.7800   33.0430   55.8330 C.ar  125  PHE125     -0.0042
     74  CE1       39.5330   35.1760   54.2370 C.ar  125  PHE125     -0.0003
     75  CE2       39.1870   32.8140   54.5130 C.ar  125  PHE125     -0.0003
     76  CZ        39.6850   33.8740   53.7440 C.ar  125  PHE125     -0.0000
     77  N         39.9850   36.5410   60.4350 N.am  126  ARG126     -0.1960
     78  CA        39.5320   37.0990   61.6930 C.3   126  ARG126      0.1772
     79  C         38.6060   38.2820   61.4500 C.2   126  ARG126      0.2619
     80  O         38.7160   38.9660   60.4330 O.2   126  ARG126     -0.2715
     81  CB        40.7640   37.5710   62.4660 C.3   126  ARG126      0.0603
     82  CG        41.8070   36.4740   62.6810 C.2   126  ARG126      0.0163
     83  CD        42.9970   36.8320   63.5720 C.2   126  ARG126      0.1886
     84  NE        44.0400   35.8130   63.6860 N.pl3 126  ARG126     -0.0578
     85  CZ        44.8870   35.8690   64.7230 C.cat 126  ARG126      0.5393
     86  NH1       44.9160   36.8100   65.6780 N.pl3 126  ARG126      0.1358
     87  NH2       45.8620   34.9610   64.8580 N.pl3 126  ARG126      0.1358
     88  N         37.6120   38.5180   62.3090 N.am  127  LYS127     -0.1977
     89  CA        36.7270   39.6620   62.2180 C.3   127  LYS127      0.1596
     90  C         37.2590   40.8640   62.9870 C.2   127  LYS127      0.2287
     91  O         37.7010   40.6850   64.1200 O.2   127  LYS127     -0.2864
     92  CB        35.4270   39.1110   62.7990 C.3   127  LYS127      0.0298
     93  CG        34.2010   40.0220   62.7220 C.3   127  LYS127      0.0038
     94  CD        33.5240   39.9760   61.3500 C.3   127  LYS127      0.0206
     95  CE        32.4920   41.0920   61.1910 C.3   127  LYS127      0.1093
     96  NZ        31.4340   41.0030   62.2090 N.3   127  LYS127     -0.1314
@<TRIPOS>BOND
     1    55    53    1
     2    54    53    1
     3    26    24    1
     4    76    74   ar
     5    76    75   ar
     6    53    52    1
     7    74    72   ar
     8    52    49    1
     9    75    73   ar
    10    24    25    1
    11    24    23    1
    12    35    36    1
    13    19    20    1
    14    20    23    1
    15    20    21    1
    16    48    49    1
    17    72    71   ar
    18    49    50    1
    19    73    71   ar
    20    22    21    2
    21    36    37    1
    22    21    27   am
    23    38    37    2
    24    71    70    1
    25    37    39   am
    26    41    42    2
    27    41    40    1
    28    45    44    1
    29    45    46    1
    30    44    43    1
    31     5     2    1
    32     5     6    1
    33    50    51    2
    34    50    56   am
    35    39    40    1
    36    27    28    1
    37    29    30    2
    38    29    28    1
    39     2     1    1
    40     2     3    1
    41    40    43    1
    42    56    57    1
    43    47    46    1
    44    70    67    1
    45     6     8   ar
    46     6     7   ar
    47    28    31    1
    48     8    10   ar
    49    13    14    1
    50     3     4    2
    51    59    58    2
    52     7     9   ar
    53    58    66   am
    54    58    57    1
    55    67    66    1
    56    67    68    1
    57    57    60    1
    58    15    14    1
    59    15    16    2
    60    10    11   ar
    61    14    17    1
    62    31    32    1
    63     9    11   ar
    64    11    12    1
    65    60    61    1
    66    68    77   am
    67    68    69    2
    68    32    33    2
    69    32    34   am
    70    17    18    1
    71    80    79    2
    72    77    78    1
    73    95    94    1
    74    95    96    1
    75    61    63    1
    76    61    62    1
    77    94    93    1
    78    79    78    1
    79    79    88   am
    80    78    81    1
    81    63    65    1
    82    89    88    1
    83    89    92    1
    84    89    90    1
    85    62    64    1
    86    81    82    1
    87    82    83    2
    88    93    92    1
    89    90    91    2
    90    65    64    1
    91    83    84    1
    92    84    85    2
    93    85    87    1
    94    85    86    1
