@<TRIPOS>MOLECULE
tmp/2mziA04.pdb
 137 132 0 0 0
SMALL
GASTEIGER

@<TRIPOS>ATOM
      1  N         37.7700   40.5190   57.7420 N.3    92  TYR92      -0.1241
      2  CA        36.4360   40.7710   57.2330 C.3    92  TYR92       0.1605
      3  C         35.5550   41.6630   58.0940 C.2    92  TYR92       0.2264
      4  O         35.7310   41.7180   59.3100 O.2    92  TYR92      -0.2867
      5  CB        35.7220   39.5350   56.6840 C.3    92  TYR92       0.0534
      6  CG        35.2960   38.6130   57.8010 C.ar   92  TYR92      -0.0201
      7  CD1       36.2560   37.8200   58.4420 C.ar   92  TYR92      -0.0009
      8  CD2       33.9240   38.4270   58.0080 C.ar   92  TYR92      -0.0009
      9  CE1       35.8290   36.9620   59.4610 C.ar   92  TYR92       0.0417
     10  CE2       33.5370   37.4930   58.9780 C.ar   92  TYR92       0.0417
     11  CZ        34.4690   36.7860   59.7490 C.ar   92  TYR92       0.1957
     12  OH        34.1480   35.8810   60.7170 O.3    92  TYR92      -0.2866
     13  N         25.9140   40.0860   58.8300 N.3   107  ASP107     -0.1225
     14  CA        27.1960   40.0290   59.5040 C.3   107  ASP107      0.1805
     15  C         27.6730   38.5870   59.5990 C.2   107  ASP107      0.2597
     16  O         28.6880   38.2720   58.9800 O.2   107  ASP107     -0.2718
     17  CB        27.1460   40.7950   60.8260 C.3   107  ASP107      0.1424
     18  CG        28.4950   40.9490   61.5130 C.2   107  ASP107      0.3668
     19  OD1       29.1380   41.9770   61.2100 O.co2 107  ASP107     -0.2456
     20  OD2       28.8430   40.2770   62.5080 O.co2 107  ASP107     -0.2456
     21  N         26.8100   37.7900   60.2320 N.am  108  ARG108     -0.1979
     22  CA        27.1570   36.4320   60.6040 C.3   108  ARG108      0.1597
     23  C         27.0460   35.3680   59.5190 C.2   108  ARG108      0.2287
     24  O         27.7510   34.3610   59.5290 O.2   108  ARG108     -0.2864
     25  CB        26.1330   36.0690   61.6800 C.3   108  ARG108      0.0334
     26  CG        26.0710   34.7010   62.3590 C.3   108  ARG108      0.0492
     27  CD        25.0610   34.7290   63.5070 C.3   108  ARG108      0.2205
     28  NE        25.2060   33.6260   64.4560 N.pl3 108  ARG108     -0.0865
     29  CZ        24.4980   33.5170   65.5880 C.cat 108  ARG108      0.5346
     30  NH1       23.5930   34.4440   65.9300 N.pl3 108  ARG108      0.1354
     31  NH2       24.6610   32.4160   66.3320 N.pl3 108  ARG108      0.1354
     32  N         30.3640   35.0290   58.0360 N.3   111  SER111     -0.1202
     33  CA        31.1730   34.3380   59.0200 C.3   111  SER111      0.2020
     34  C         31.1090   32.8190   58.9320 C.2   111  SER111      0.2618
     35  O         32.1540   32.1930   59.0860 O.2   111  SER111     -0.2717
     36  CB        30.9330   34.9940   60.3790 C.3   111  SER111      0.2103
     37  OG        31.9570   34.7080   61.3050 O.3   111  SER111     -0.2182
     38  N         29.9620   32.2520   58.5480 N.am  112  LYS112     -0.1979
     39  CA        29.7330   30.8720   58.1720 C.3   112  LYS112      0.1596
     40  C         30.4260   30.5410   56.8580 C.2   112  LYS112      0.2287
     41  O         31.2510   29.6300   56.8360 O.2   112  LYS112     -0.2864
     42  CB        28.2490   30.4990   58.1490 C.3   112  LYS112      0.0298
     43  CG        27.4540   30.7890   59.4200 C.3   112  LYS112      0.0038
     44  CD        25.9480   30.5430   59.2990 C.3   112  LYS112      0.0206
     45  CE        25.0520   31.4360   60.1550 C.3   112  LYS112      0.1093
     46  NZ        23.6630   30.9500   60.1640 N.3   112  LYS112     -0.1314
     47  N         34.2210   30.6990   57.0630 N.3   115  ASN115     -0.1225
     48  CA        34.7060   29.5970   57.8680 C.3   115  ASN115      0.1785
     49  C         34.5940   28.2620   57.1420 C.2   115  ASN115      0.2597
     50  O         35.3660   27.3450   57.4120 O.2   115  ASN115     -0.2718
     51  CB        33.7960   29.4440   59.0880 C.3   115  ASN115      0.1169
     52  CG        34.2050   28.4140   60.1320 C.2   115  ASN115      0.2627
     53  OD1       33.5420   27.4090   60.3830 O.2   115  ASN115     -0.2716
     54  ND2       35.2330   28.6180   60.9580 N.am  115  ASN115     -0.0877
     55  N         33.6210   28.0340   56.2600 N.am  116  MET116     -0.1979
     56  CA        33.4840   26.8550   55.4290 C.3   116  MET116      0.1605
     57  C         34.6530   26.5460   54.5050 C.2   116  MET116      0.2287
     58  O         35.1500   25.4250   54.3970 O.2   116  MET116     -0.2864
     59  CB        32.1790   27.0460   54.6540 C.3   116  MET116      0.0413
     60  CG        31.6240   25.7590   54.0430 C.3   116  MET116      0.0598
     61  SD        30.2410   26.0060   52.8990 S.3   116  MET116     -0.1393
     62  CE        29.8140   24.2550   52.7230 C.3   116  MET116      0.0692
     63  N         38.7680   26.4240   56.7810 N.3   119  LYS119     -0.1245
     64  CA        39.3450   25.1920   57.2770 C.3   119  LYS119      0.1561
     65  C         40.3850   24.4830   56.4220 C.2   119  LYS119      0.2260
     66  O         41.2940   23.8120   56.9050 O.2   119  LYS119     -0.2867
     67  CB        38.2460   24.1680   57.5670 C.3   119  LYS119      0.0271
     68  CG        37.2150   23.9280   56.4630 C.3   119  LYS119      0.0035
     69  CD        36.6710   22.5000   56.4530 C.3   119  LYS119      0.0206
     70  CE        35.9120   22.1200   57.7270 C.3   119  LYS119      0.1093
     71  NZ        35.7170   20.6610   57.7020 N.3   119  LYS119     -0.1314
     72  N         37.6120   38.5180   62.3090 N.3   127  LYS127     -0.1245
     73  CA        36.7270   39.6620   62.2180 C.3   127  LYS127      0.1561
     74  C         37.2590   40.8640   62.9870 C.2   127  LYS127      0.2260
     75  O         37.7010   40.6850   64.1200 O.2   127  LYS127     -0.2867
     76  CB        35.4270   39.1110   62.7990 C.3   127  LYS127      0.0271
     77  CG        34.2010   40.0220   62.7220 C.3   127  LYS127      0.0035
     78  CD        33.5240   39.9760   61.3500 C.3   127  LYS127      0.0206
     79  CE        32.4920   41.0920   61.1910 C.3   127  LYS127      0.1093
     80  NZ        31.4340   41.0030   62.2090 N.3   127  LYS127     -0.1314
     81  N         36.2490   45.0970   63.9170 N.3   129  VAL129     -0.1231
     82  CA        35.3050   46.1860   64.0650 C.3   129  VAL129      0.1692
     83  C         35.8360   47.5930   64.3070 C.2   129  VAL129      0.2591
     84  O         35.2020   48.4720   64.8850 O.2   129  VAL129     -0.2718
     85  CB        34.2490   45.6850   65.0470 C.3   129  VAL129      0.0266
     86  CG1       33.5050   44.4850   64.4590 C.3   129  VAL129      0.0020
     87  CG2       34.6960   45.3690   66.4760 C.3   129  VAL129      0.0020
     88  N         37.0670   47.7270   63.8090 N.am  130  TRP130     -0.1979
     89  CA        37.7960   48.9770   63.8800 C.3   130  TRP130      0.1600
     90  C         38.1660   49.3310   62.4480 C.2   130  TRP130      0.2287
     91  O         39.1580   48.8240   61.9250 O.2   130  TRP130     -0.2864
     92  CB        38.9300   48.8030   64.8920 C.3   130  TRP130      0.0359
     93  CG        39.7890   47.5910   64.7290 C.3   130  TRP130      0.0473
     94  CD1       40.9400   47.4420   64.0360 C.3   130  TRP130      0.1166
     95  CD2       39.6040   46.2970   65.3760 C.ar  130  TRP130     -0.0059
     96  NE1       41.4970   46.1960   64.2600 N.pl3 130  TRP130     -0.2376
     97  CE2       40.7970   45.5390   65.2520 C.ar  130  TRP130      0.0614
     98  CE3       38.6320   45.8020   66.2610 C.ar  130  TRP130     -0.0030
     99  CZ2       41.0490   44.3300   65.9130 C.ar  130  TRP130      0.0158
    100  CZ3       38.8520   44.6140   66.9670 C.ar  130  TRP130     -0.0002
    101  CH2       40.0490   43.9090   66.7970 C.ar  130  TRP130      0.0013
    102  N         23.8650   32.2810   52.1270 N.3   190  LEU190     -0.1245
    103  CA        24.7600   31.2570   52.6320 C.3   190  LEU190      0.1561
    104  C         25.5400   30.5840   51.5120 C.2   190  LEU190      0.2260
    105  O         26.7480   30.3750   51.5950 O.2   190  LEU190     -0.2867
    106  CB        23.9330   30.2460   53.4270 C.3   190  LEU190      0.0270
    107  CG        24.6970   29.1900   54.2260 C.3   190  LEU190      0.0019
    108  CD1       25.4870   29.8170   55.3750 C.3   190  LEU190      0.0001
    109  CD2       23.8430   28.0030   54.6700 C.3   190  LEU190      0.0001
    110  N         22.5330   19.8430   55.9460 N.3   224  ASN224     -0.1225
    111  CA        23.6140   20.3100   56.7890 C.3   224  ASN224      0.1785
    112  C         24.3730   21.4300   56.0920 C.2   224  ASN224      0.2597
    113  O         24.5970   22.4910   56.6710 O.2   224  ASN224     -0.2718
    114  CB        24.4730   19.0640   57.0070 C.3   224  ASN224      0.1169
    115  CG        25.6250   19.3590   57.9550 C.2   224  ASN224      0.2627
    116  OD1       26.7540   19.5800   57.5240 O.2   224  ASN224     -0.2716
    117  ND2       25.4440   19.4190   59.2780 N.am  224  ASN224     -0.0877
    118  N         24.6880   21.2300   54.8090 N.am  225  PHE225     -0.1962
    119  CA        25.4760   22.0850   53.9440 C.3   225  PHE225      0.1771
    120  C         26.9440   21.9450   54.3230 C.2   225  PHE225      0.2619
    121  O         27.3540   22.2310   55.4470 O.2   225  PHE225     -0.2715
    122  CB        24.9160   23.4760   53.6480 C.3   225  PHE225      0.0574
    123  CG        25.6690   24.3600   52.6830 C.ar  225  PHE225     -0.0200
    124  CD1       25.8640   23.9290   51.3640 C.ar  225  PHE225     -0.0042
    125  CD2       26.0170   25.6860   52.9620 C.ar  225  PHE225     -0.0042
    126  CE1       26.4880   24.7690   50.4320 C.ar  225  PHE225     -0.0003
    127  CE2       26.7350   26.5110   52.0890 C.ar  225  PHE225     -0.0003
    128  CZ        26.9370   26.0470   50.7820 C.ar  225  PHE225     -0.0000
    129  N         27.6750   21.3610   53.3730 N.am  226  LYS226     -0.1977
    130  CA        29.0180   20.8330   53.5020 C.3   226  LYS226      0.1596
    131  C         29.7220   20.9450   52.1560 C.2   226  LYS226      0.2287
    132  O         29.0670   20.9770   51.1180 O.2   226  LYS226     -0.2864
    133  CB        28.9490   19.4370   54.1240 C.3   226  LYS226      0.0298
    134  CG        28.6190   18.2630   53.2000 C.3   226  LYS226      0.0038
    135  CD        28.6350   16.9940   54.0540 C.3   226  LYS226      0.0206
    136  CE        27.8160   15.7880   53.5930 C.3   226  LYS226      0.1093
    137  NZ        27.9130   14.8310   54.7050 N.3   226  LYS226     -0.1314
@<TRIPOS>BOND
     1   126   128   ar
     2   126   124   ar
     3   128   127   ar
     4   132   131    2
     5   124   123   ar
     6   104   105    2
     7   104   103    1
     8   127   125   ar
     9   102   103    1
    10   131   130    1
    11   103   106    1
    12   123   125   ar
    13   123   122    1
    14    62    61    1
    15    61    60    1
    16   134   135    1
    17   134   133    1
    18   129   130    1
    19   129   120   am
    20   106   107    1
    21   130   133    1
    22   136   135    1
    23   136   137    1
    24   122   119    1
    25   119   120    1
    26   119   118    1
    27    60    59    1
    28   107   109    1
    29   107   108    1
    30   120   121    2
    31    58    57    2
    32    57    56    1
    33    59    56    1
    34   118   112   am
    35    56    55    1
    36   110   111    1
    37   112   113    2
    38   112   111    1
    39    55    49   am
    40    65    66    2
    41    65    64    1
    42    69    68    1
    43    69    70    1
    44    68    67    1
    45     5     2    1
    46     5     6    1
    47    63    64    1
    48   111   114    1
    49    41    40    2
    50    40    39    1
    51   114   115    1
    52    47    48    1
    53    49    50    2
    54    49    48    1
    55     2     1    1
    56     2     3    1
    57    64    67    1
    58   116   115    2
    59    71    70    1
    60     6     8   ar
    61     6     7   ar
    62    48    51    1
    63   115   117   am
    64     8    10   ar
    65    32    33    1
    66     3     4    2
    67    42    39    1
    68    42    43    1
    69    39    38    1
    70     7     9   ar
    71    38    34   am
    72    13    14    1
    73    34    33    1
    74    34    35    2
    75    10    11   ar
    76    16    15    2
    77    33    36    1
    78    51    52    1
    79    44    43    1
    80    44    45    1
    81     9    11   ar
    82    14    15    1
    83    14    17    1
    84    23    24    2
    85    23    22    1
    86    15    21   am
    87    11    12    1
    88    52    53    2
    89    52    54   am
    90    45    46    1
    91    21    22    1
    92    36    37    1
    93    22    25    1
    94    17    18    1
    95    79    78    1
    96    79    80    1
    97    19    18   ar
    98    78    77    1
    99    18    20   ar
   100    25    26    1
   101    91    90    2
   102    73    72    1
   103    73    76    1
   104    73    74    1
   105    26    27    1
   106    90    89    1
   107    77    76    1
   108    74    75    2
   109    27    28    1
   110    88    89    1
   111    88    83   am
   112    89    92    1
   113    81    82    1
   114    94    96    1
   115    94    93    1
   116    82    83    1
   117    82    85    1
   118    96    97    1
   119    83    84    2
   120    28    29    2
   121    86    85    1
   122    93    92    1
   123    93    95    1
   124    85    87    1
   125    97    95   ar
   126    97    99   ar
   127    95    98   ar
   128    29    30    1
   129    29    31    1
   130    99   101   ar
   131    98   100   ar
   132   101   100   ar
