@<TRIPOS>MOLECULE
tmp/2n0uA00.pdb
 152 148 0 0 0
SMALL
GASTEIGER

@<TRIPOS>ATOM
      1  N          7.6300   11.4980   -5.0730 N.3    31  MET31      -0.1230
      2  CA         7.1310   11.6480   -6.4420 C.3    31  MET31       0.1702
      3  C          6.1520   12.8290   -6.6050 C.2    31  MET31       0.2592
      4  O          6.0950   13.4160   -7.6840 O.2    31  MET31      -0.2718
      5  CB         6.6120   10.3030   -6.9830 C.3    31  MET31       0.0401
      6  CG         5.2000    9.9040   -6.5310 C.3    31  MET31       0.0596
      7  SD         3.8180   10.7440   -7.3610 S.3    31  MET31      -0.1393
      8  CE         4.0060   10.1390   -9.0620 C.3    31  MET31       0.0692
      9  N          5.4660   13.2760   -5.5430 N.am   32  HIS32      -0.1976
     10  CA         4.6050   14.4700   -5.5980 C.3    32  HIS32       0.1656
     11  C          5.4240   15.7470   -5.8310 C.2    32  HIS32       0.2291
     12  O          5.0230   16.6160   -6.6080 O.2    32  HIS32      -0.2864
     13  CB         3.7750   14.5830   -4.3130 C.3    32  HIS32       0.0771
     14  CG         2.8110   15.7450   -4.3340 C.ar   32  HIS32       0.0820
     15  ND1        1.5740   15.7660   -4.9870 N.ar   32  HIS32      -0.2267
     16  CD2        3.0210   16.9590   -3.7440 C.ar   32  HIS32       0.1154
     17  CE1        1.0670   16.9940   -4.7740 C.ar   32  HIS32       0.1986
     18  NE2        1.9140   17.7290   -4.0310 N.ar   32  HIS32      -0.2212
     19  N          8.0880   15.7800   -7.6700 N.3    34  LEU34      -0.1231
     20  CA         8.3910   15.7710   -9.1110 C.3    34  LEU34       0.1693
     21  C          7.2760   16.4560   -9.9090 C.2    34  LEU34       0.2593
     22  O          7.5610   17.2730  -10.7800 O.2    34  LEU34      -0.2718
     23  CB         8.5960   14.3430   -9.6420 C.3    34  LEU34       0.0284
     24  CG         9.6190   13.4900   -8.8880 C.3    34  LEU34       0.0019
     25  CD1        9.6540   12.0840   -9.4760 C.3    34  LEU34       0.0001
     26  CD2       11.0230   14.0820   -8.9500 C.3    34  LEU34       0.0001
     27  N          6.0120   16.1870   -9.5750 N.am   35  GLY35      -0.1942
     28  CA         4.8690   16.8360  -10.2180 C.3    35  GLY35       0.2014
     29  C          4.8890   18.3560  -10.0460 C.2    35  GLY35       0.2638
     30  O          4.8380   19.0940  -11.0340 O.2    35  GLY35      -0.2714
     31  N          5.1190   18.8420   -8.8160 N.am   36  GLN36      -0.1977
     32  CA         5.2570   20.2840   -8.5760 C.3    36  GLN36       0.1601
     33  C          6.5240   20.8510   -9.2380 C.2    36  GLN36       0.2287
     34  O          6.4680   21.9350   -9.8120 O.2    36  GLN36      -0.2864
     35  CB         5.1320   20.6290   -7.0770 C.3    36  GLN36       0.0394
     36  CG         6.4630   20.7390   -6.3090 C.3    36  GLN36       0.0908
     37  CD         6.2800   20.9050   -4.7950 C.2    36  GLN36       0.2608
     38  OE1        5.3440   20.4080   -4.1830 O.2    36  GLN36      -0.2717
     39  NE2        7.1950   21.5670   -4.1200 N.am   36  GLN36      -0.0878
     40  N          8.0350   19.8250  -12.0960 N.3    38  ILE38      -0.1231
     41  CA         7.7420   19.9510  -13.5320 C.3    38  ILE38       0.1692
     42  C          6.7520   21.0910  -13.7700 C.2    38  ILE38       0.2591
     43  O          6.9420   21.8660  -14.7000 O.2    38  ILE38      -0.2718
     44  CB         7.1920   18.6230  -14.0870 C.3    38  ILE38       0.0266
     45  CG1        8.2040   17.4680  -13.9400 C.3    38  ILE38       0.0019
     46  CG2        6.7820   18.7530  -15.5670 C.3    38  ILE38       0.0020
     47  CD1        7.4670   16.1380  -13.7870 C.3    38  ILE38       0.0001
     48  N          5.7310   21.2430  -12.9260 N.am   39  MET39      -0.1979
     49  CA         4.7500   22.3260  -13.0520 C.3    39  MET39       0.1605
     50  C          5.3890   23.7220  -12.9070 C.2    39  MET39       0.2287
     51  O          5.0130   24.6560  -13.6150 O.2    39  MET39      -0.2864
     52  CB         3.6460   22.0750  -12.0140 C.3    39  MET39       0.0413
     53  CG         2.3860   22.9230  -12.2180 C.3    39  MET39       0.0598
     54  SD         1.4600   22.5660  -13.7400 S.3    39  MET39      -0.1393
     55  CE         1.8610   24.0410  -14.7160 C.3    39  MET39       0.0692
     56  N          6.9040   20.0530  -19.5380 N.3    44  TYR44      -0.1241
     57  CA         5.9750   19.2960  -20.3830 C.3    44  TYR44       0.1605
     58  C          5.8640   19.8340  -21.8240 C.2    44  TYR44       0.2264
     59  O          6.3250   20.9370  -22.1320 O.2    44  TYR44      -0.2867
     60  CB         4.6080   19.2000  -19.7000 C.3    44  TYR44       0.0534
     61  CG         4.0930   20.5360  -19.2140 C.ar   44  TYR44      -0.0201
     62  CD1        3.5790   21.4730  -20.1250 C.ar   44  TYR44      -0.0009
     63  CD2        4.2310   20.8690  -17.8580 C.ar   44  TYR44      -0.0009
     64  CE1        3.1970   22.7540  -19.6860 C.ar   44  TYR44       0.0417
     65  CE2        3.8540   22.1490  -17.4070 C.ar   44  TYR44       0.0417
     66  CZ         3.3360   23.0960  -18.3210 C.ar   44  TYR44       0.1957
     67  OH         2.9930   24.3390  -17.8830 O.3    44  TYR44      -0.2866
     68  N          0.2910   18.3470  -22.0870 N.3    49  GLN49      -0.1231
     69  CA         0.7190   18.7810  -20.7500 C.3    49  GLN49       0.1698
     70  C          1.0440   17.6200  -19.7900 C.2    49  GLN49       0.2592
     71  O          1.8510   17.7700  -18.8750 O.2    49  GLN49      -0.2718
     72  CB        -0.4090   19.6350  -20.1630 C.3    49  GLN49       0.0381
     73  CG        -0.3690   21.1060  -20.6040 C.3    49  GLN49       0.0905
     74  CD        -0.7830   21.3610  -22.0540 C.2    49  GLN49       0.2608
     75  OE1       -1.9260   21.6820  -22.3520 O.2    49  GLN49      -0.2717
     76  NE2        0.1070   21.2440  -23.0160 N.am   49  GLN49      -0.0878
     77  N          0.4350   16.4520  -20.0010 N.am   50  HIS50      -0.1976
     78  CA         0.6990   15.2000  -19.2930 C.3    50  HIS50       0.1656
     79  C          1.9380   14.4370  -19.8170 C.2    50  HIS50       0.2291
     80  O          2.3370   13.4430  -19.2160 O.2    50  HIS50      -0.2864
     81  CB        -0.5860   14.3590  -19.4010 C.3    50  HIS50       0.0771
     82  CG        -1.0540   14.2270  -20.8230 C.ar   50  HIS50       0.0820
     83  ND1       -1.8620   15.1530  -21.4840 N.ar   50  HIS50      -0.2267
     84  CD2       -0.5740   13.3260  -21.7230 C.ar   50  HIS50       0.1154
     85  CE1       -1.8640   14.7840  -22.7720 C.ar   50  HIS50       0.1986
     86  NE2       -1.1050   13.6850  -22.9460 N.ar   50  HIS50      -0.2212
     87  N          5.9980   14.6300  -20.4360 N.3    52  VAL52      -0.1245
     88  CA         7.1070   15.3680  -19.8090 C.3    52  VAL52       0.1561
     89  C          8.3960   15.1990  -20.6310 C.2    52  VAL52       0.2260
     90  O          8.7220   14.0940  -21.0690 O.2    52  VAL52      -0.2867
     91  CB         7.3240   14.9000  -18.3560 C.3    52  VAL52       0.0252
     92  CG1        8.3050   15.8390  -17.6470 C.3    52  VAL52       0.0019
     93  CG2        6.0150   14.8980  -17.5480 C.3    52  VAL52       0.0019
     94  N         16.6910   16.4420  -13.2770 N.3    59  LEU59      -0.1245
     95  CA        15.7110   15.3570  -13.2240 C.3    59  LEU59       0.1561
     96  C         15.8490   14.3870  -14.4210 C.2    59  LEU59       0.2260
     97  O         15.7710   13.1750  -14.2360 O.2    59  LEU59      -0.2867
     98  CB        14.2930   15.9590  -13.1120 C.3    59  LEU59       0.0270
     99  CG        13.1240   14.9510  -13.1540 C.3    59  LEU59       0.0019
    100  CD1       13.2440   13.8090  -12.1390 C.3    59  LEU59       0.0001
    101  CD2       11.8110   15.6900  -12.8830 C.3    59  LEU59       0.0001
    102  N          9.1020   10.8550  -20.2730 N.3    68  PHE68      -0.1227
    103  CA         8.1260    9.9230  -19.6930 C.3    68  PHE68       0.1736
    104  C          6.7350   10.5980  -19.7080 C.2    68  PHE68       0.2596
    105  O          6.6210   11.7990  -19.9700 O.2    68  PHE68      -0.2718
    106  CB         8.5430    9.5510  -18.2600 C.3    68  PHE68       0.0547
    107  CG         8.5920   10.7220  -17.3020 C.ar   68  PHE68      -0.0202
    108  CD1        9.7510   11.5140  -17.2290 C.ar   68  PHE68      -0.0042
    109  CD2        7.4730   11.0390  -16.5100 C.ar   68  PHE68      -0.0042
    110  CE1        9.8000   12.6070  -16.3500 C.ar   68  PHE68      -0.0003
    111  CE2        7.5220   12.1320  -15.6290 C.ar   68  PHE68      -0.0003
    112  CZ         8.6990   12.8980  -15.5210 C.ar   68  PHE68      -0.0000
    113  N          5.6720    9.8520  -19.4010 N.am   69  SER69      -0.1938
    114  CA         4.2960   10.3680  -19.3440 C.3    69  SER69       0.2055
    115  C          3.6850   10.2100  -17.9510 C.2    69  SER69       0.2642
    116  O          3.9980    9.2760  -17.2130 O.2    69  SER69      -0.2714
    117  CB         3.4350    9.6440  -20.3860 C.3    69  SER69       0.2130
    118  OG         2.0810   10.0660  -20.3050 O.3    69  SER69      -0.2179
    119  N          2.7390   11.0870  -17.6220 N.am   70  VAL70      -0.1977
    120  CA         1.8450   10.9900  -16.4540 C.3    70  VAL70       0.1596
    121  C          1.0860    9.6480  -16.4550 C.2    70  VAL70       0.2287
    122  O          0.7650    9.1120  -15.3920 O.2    70  VAL70      -0.2864
    123  CB         0.8770   12.1810  -16.5310 C.3    70  VAL70       0.0276
    124  CG1       -0.4760   12.0430  -15.8370 C.3    70  VAL70       0.0022
    125  CG2        1.5470   13.4710  -16.0470 C.3    70  VAL70       0.0022
    126  N          4.3640    6.0410  -15.4230 N.3    73  PRO73      -0.2116
    127  CA         5.2430    6.4480  -14.3160 C.3    73  PRO73       0.1372
    128  C          6.4960    5.5730  -14.1280 C.2    73  PRO73       0.2244
    129  O          7.4300    5.9760  -13.4350 O.2    73  PRO73      -0.2868
    130  CB         4.3520    6.3730  -13.0720 C.3    73  PRO73       0.0268
    131  CG         3.3290    5.2930  -13.4110 C.3    73  PRO73       0.0207
    132  CD         3.1030    5.5230  -14.9020 C.3    73  PRO73       0.0892
    133  N         10.3640    6.5270  -13.2840 N.3    76  LEU76      -0.1231
    134  CA        10.5180    7.2670  -12.0310 C.3    76  LEU76       0.1693
    135  C         10.6630    6.2750  -10.8660 C.2    76  LEU76       0.2592
    136  O         11.6170    6.2850  -10.0890 O.2    76  LEU76      -0.2718
    137  CB         9.2510    8.1270  -11.7980 C.3    76  LEU76       0.0284
    138  CG         8.7820    9.0260  -12.9540 C.3    76  LEU76       0.0019
    139  CD1        7.3600    9.5220  -12.6890 C.3    76  LEU76       0.0001
    140  CD2        9.6970   10.2330  -13.1000 C.3    76  LEU76       0.0001
    141  N          9.7260    5.3350  -10.7840 N.am   77  TYR77      -0.1976
    142  CA         9.7250    4.3420   -9.7210 C.3    77  TYR77       0.1639
    143  C         10.9880    3.4690   -9.7890 C.2    77  TYR77       0.2290
    144  O         11.5520    3.1320   -8.7550 O.2    77  TYR77      -0.2864
    145  CB         8.4230    3.5340   -9.8010 C.3    77  TYR77       0.0560
    146  CG         7.2090    4.2740   -9.2550 C.ar   77  TYR77      -0.0198
    147  CD1        6.5850    5.3100   -9.9880 C.ar   77  TYR77      -0.0009
    148  CD2        6.7130    3.9230   -7.9830 C.ar   77  TYR77      -0.0009
    149  CE1        5.4750    5.9880   -9.4400 C.ar   77  TYR77       0.0417
    150  CE2        5.5950    4.5860   -7.4460 C.ar   77  TYR77       0.0417
    151  CZ         4.9710    5.6210   -8.1710 C.ar   77  TYR77       0.1957
    152  OH         3.8830    6.2470   -7.6420 O.3    77  TYR77      -0.2866
@<TRIPOS>BOND
     1    76    74   am
     2    86    85   ar
     3    86    84   ar
     4    85    83   ar
     5    75    74    2
     6    59    58    2
     7    68    69    1
     8    74    73    1
     9    58    57    1
    10    84    82   ar
    11    83    82   ar
    12    90    89    2
    13    82    81    1
    14    69    72    1
    15    69    70    1
    16    89    88    1
    17    73    72    1
    18    87    88    1
    19   117   118    1
    20   117   114    1
    21    57    60    1
    22    57    56    1
    23   102   103    1
    24    62    64   ar
    25    62    61   ar
    26    77    70   am
    27    77    78    1
    28   105   104    2
    29    79    78    1
    30    79    80    2
    31    88    91    1
    32    70    71    2
    33   104   103    1
    34   104   113   am
    35    60    61    1
    36   103   106    1
    37    64    66   ar
    38    81    78    1
    39   113   114    1
    40   114   115    1
    41    61    63   ar
    42    91    92    1
    43    91    93    1
    44    66    67    1
    45    66    65   ar
    46   106   107    1
    47   115   119   am
    48   115   116    2
    49    63    65   ar
    50   119   120    1
    51   107   108   ar
    52   107   109   ar
    53   108   110   ar
    54   123   120    1
    55   123   125    1
    56   123   124    1
    57   109   111   ar
    58   121   120    1
    59   121   122    2
    60   110   112   ar
    61   111   112   ar
    62    46    44    1
    63   126   132    1
    64   126   127    1
    65   132   131    1
    66    55    54    1
    67    43    42    2
    68    96    97    2
    69    96    95    1
    70   127   128    1
    71   127   130    1
    72   128   129    2
    73    44    45    1
    74    44    41    1
    75    45    47    1
    76    42    41    1
    77    42    48   am
    78    54    53    1
    79    51    50    2
    80    41    40    1
    81   131   130    1
    82   133   134    1
    83    94    95    1
    84    95    98    1
    85    99    98    1
    86    99   101    1
    87    99   100    1
    88   140   138    1
    89    49    48    1
    90    49    50    1
    91    49    52    1
    92   138   139    1
    93   138   137    1
    94    53    52    1
    95   134   137    1
    96   134   135    1
    97    30    29    2
    98   135   141   am
    99   135   136    2
   100   141   142    1
   101    22    21    2
   102    28    29    1
   103    28    27    1
   104    29    31   am
   105   147   149   ar
   106   147   146   ar
   107    21    27   am
   108    21    20    1
   109    34    33    2
   110   145   142    1
   111   145   146    1
   112   143   142    1
   113   143   144    2
   114    23    20    1
   115    23    24    1
   116    25    24    1
   117   149   151   ar
   118   146   148   ar
   119    33    32    1
   120    20    19    1
   121     8     7    1
   122    26    24    1
   123    31    32    1
   124    32    35    1
   125   151   152    1
   126   151   150   ar
   127   148   150   ar
   128     4     3    2
   129     7     6    1
   130    35    36    1
   131     5     6    1
   132     5     2    1
   133    12    11    2
   134     3     2    1
   135     3     9   am
   136     2     1    1
   137    36    37    1
   138    11    10    1
   139    10     9    1
   140    10    13    1
   141    15    17   ar
   142    15    14   ar
   143    37    38    2
   144    37    39   am
   145    17    18   ar
   146    14    13    1
   147    14    16   ar
   148    18    16   ar
