@<TRIPOS>MOLECULE
tmp/2n0wA00.pdb
 145 139 0 0 0
SMALL
GASTEIGER

@<TRIPOS>ATOM
      1  N          4.9930    9.4230   -0.9930 N.3    28  LYS28      -0.1245
      2  CA         3.8390   10.3230   -1.1610 C.3    28  LYS28       0.1561
      3  C          4.2700   11.7910   -1.3130 C.2    28  LYS28       0.2260
      4  O          3.8110   12.4900   -2.2140 O.2    28  LYS28      -0.2867
      5  CB         2.9210   10.1530    0.0610 C.3    28  LYS28       0.0271
      6  CG         2.3240    8.7360    0.1730 C.3    28  LYS28       0.0035
      7  CD         1.5070    8.5260    1.4570 C.3    28  LYS28       0.0206
      8  CE         2.3760    8.5900    2.7280 C.3    28  LYS28       0.1093
      9  NZ         1.5820    8.2540    3.9430 N.3    28  LYS28      -0.1314
     10  N          6.7100   12.0920   -4.6540 N.3    31  MET31      -0.1230
     11  CA         5.8950   12.1930   -5.8680 C.3    31  MET31       0.1702
     12  C          5.1550   13.5290   -5.9590 C.2    31  MET31       0.2592
     13  O          5.1290   14.1310   -7.0300 O.2    31  MET31      -0.2718
     14  CB         4.9040   11.0230   -5.9360 C.3    31  MET31       0.0401
     15  CG         5.6100    9.6940   -6.2240 C.3    31  MET31       0.0596
     16  SD         6.6090    9.6160   -7.7440 S.3    31  MET31      -0.1393
     17  CE         5.3520    9.9410   -9.0100 C.3    31  MET31       0.0692
     18  N          4.6240   14.0420   -4.8440 N.am   32  HIS32      -0.1976
     19  CA         4.0440   15.3940   -4.7940 C.3    32  HIS32       0.1656
     20  C          5.0560   16.4570   -5.2420 C.2    32  HIS32       0.2291
     21  O          4.7870   17.2090   -6.1800 O.2    32  HIS32      -0.2864
     22  CB         3.5140   15.6970   -3.3850 C.3    32  HIS32       0.0771
     23  CG         2.9990   17.1090   -3.2440 C.ar   32  HIS32       0.0820
     24  ND1        1.7840   17.5850   -3.7480 N.ar   32  HIS32      -0.2267
     25  CD2        3.6730   18.1430   -2.6610 C.ar   32  HIS32       0.1154
     26  CE1        1.7530   18.8960   -3.4510 C.ar   32  HIS32       0.1986
     27  NE2        2.8710   19.2560   -2.7960 N.ar   32  HIS32      -0.2212
     28  N          7.8250   15.9410   -6.9960 N.3    34  LEU34      -0.1231
     29  CA         8.1310   15.6810   -8.4080 C.3    34  LEU34       0.1693
     30  C          7.0820   16.3180   -9.3340 C.2    34  LEU34       0.2592
     31  O          7.4540   16.9550  -10.3180 O.2    34  LEU34      -0.2718
     32  CB         8.2540   14.1620   -8.6460 C.3    34  LEU34       0.0284
     33  CG         9.5960   13.5550   -8.1940 C.3    34  LEU34       0.0019
     34  CD1        9.5180   12.0280   -8.2130 C.3    34  LEU34       0.0001
     35  CD2       10.7300   13.9650   -9.1290 C.3    34  LEU34       0.0001
     36  N          5.7940   16.2370   -8.9850 N.am   35  GLY35      -0.1957
     37  CA         4.7270   16.9360   -9.7060 C.3    35  GLY35       0.1869
     38  C          4.9110   18.4570   -9.6740 C.2    35  GLY35       0.2309
     39  O          4.9230   19.0970  -10.7300 O.2    35  GLY35      -0.2863
     40  N          8.0530   19.3420  -11.9810 N.3    38  ILE38      -0.1231
     41  CA         7.7170   19.2250  -13.4070 C.3    38  ILE38       0.1692
     42  C          6.8410   20.4160  -13.8390 C.2    38  ILE38       0.2591
     43  O          7.1420   21.0530  -14.8530 O.2    38  ILE38      -0.2718
     44  CB         7.0980   17.8280  -13.6770 C.3    38  ILE38       0.0266
     45  CG1        8.1700   16.7280  -13.4570 C.3    38  ILE38       0.0019
     46  CG2        6.5300   17.6570  -15.0990 C.3    38  ILE38       0.0020
     47  CD1        7.5920   15.3110  -13.3680 C.3    38  ILE38       0.0001
     48  N          5.8390   20.8050  -13.0410 N.am   39  MET39      -0.1979
     49  CA         5.0140   21.9970  -13.3120 C.3    39  MET39       0.1605
     50  C          5.7860   23.3240  -13.1770 C.2    39  MET39       0.2287
     51  O          5.5330   24.2510  -13.9470 O.2    39  MET39      -0.2864
     52  CB         3.7760   22.0020  -12.3960 C.3    39  MET39       0.0413
     53  CG         2.5860   21.1950  -12.9400 C.3    39  MET39       0.0598
     54  SD         2.8230   19.4110  -13.1870 S.3    39  MET39      -0.1393
     55  CE         3.3370   19.3720  -14.9220 C.3    39  MET39       0.0692
     56  N          6.7250   19.2470  -19.2990 N.3    44  TYR44      -0.1241
     57  CA         5.5570   18.5280  -19.8340 C.3    44  TYR44       0.1605
     58  C          4.9660   19.2120  -21.0860 C.2    44  TYR44       0.2264
     59  O          5.3200   20.3500  -21.4070 O.2    44  TYR44      -0.2867
     60  CB         4.4970   18.4040  -18.7230 C.3    44  TYR44       0.0534
     61  CG         3.7980   19.7060  -18.3590 C.ar   44  TYR44      -0.0201
     62  CD1        4.4690   20.6940  -17.6070 C.ar   44  TYR44      -0.0009
     63  CD2        2.4720   19.9320  -18.7800 C.ar   44  TYR44      -0.0009
     64  CE1        3.8210   21.9040  -17.2870 C.ar   44  TYR44       0.0417
     65  CE2        1.8200   21.1390  -18.4600 C.ar   44  TYR44       0.0417
     66  CZ         2.4950   22.1300  -17.7130 C.ar   44  TYR44       0.1957
     67  OH         1.8760   23.3010  -17.3930 O.3    44  TYR44      -0.2866
     68  N         -0.7770   16.0970  -21.5670 N.3    49  GLN49      -0.1231
     69  CA        -0.5020   16.3990  -20.1520 C.3    49  GLN49       0.1698
     70  C         -0.1730   15.1410  -19.3270 C.2    49  GLN49       0.2592
     71  O          0.5600   15.2150  -18.3410 O.2    49  GLN49      -0.2718
     72  CB        -1.6900   17.1620  -19.5390 C.3    49  GLN49       0.0381
     73  CG        -1.9310   18.5210  -20.2240 C.3    49  GLN49       0.0905
     74  CD        -3.0910   19.3220  -19.6270 C.2    49  GLN49       0.2608
     75  OE1       -3.6410   19.0280  -18.5720 O.2    49  GLN49      -0.2717
     76  NE2       -3.5110   20.3820  -20.2870 N.am   49  GLN49      -0.0878
     77  N         -0.6490   13.9730  -19.7710 N.am   50  HIS50      -0.1976
     78  CA        -0.2900   12.6450  -19.2510 C.3    50  HIS50       0.1656
     79  C          1.1470   12.2080  -19.5970 C.2    50  HIS50       0.2291
     80  O          1.5730   11.1320  -19.1800 O.2    50  HIS50      -0.2864
     81  CB        -1.2960   11.6240  -19.8050 C.3    50  HIS50       0.0771
     82  CG        -1.2820   11.5500  -21.3150 C.ar   50  HIS50       0.0820
     83  ND1       -2.0160   12.3800  -22.1700 N.ar   50  HIS50      -0.2267
     84  CD2       -0.5040   10.7170  -22.0660 C.ar   50  HIS50       0.1154
     85  CE1       -1.6780   12.0110  -23.4170 C.ar   50  HIS50       0.1986
     86  NE2       -0.7680   11.0220  -23.3840 N.ar   50  HIS50      -0.2212
     87  N          5.3700   13.3930  -19.8180 N.3    52  VAL52      -0.1245
     88  CA         6.4350   14.2490  -19.2900 C.3    52  VAL52       0.1561
     89  C          7.5270   14.3250  -20.3530 C.2    52  VAL52       0.2260
     90  O          7.8520   13.3290  -20.9970 O.2    52  VAL52      -0.2867
     91  CB         6.9380   13.7110  -17.9320 C.3    52  VAL52       0.0252
     92  CG1        8.0200   14.6000  -17.3090 C.3    52  VAL52       0.0019
     93  CG2        5.7790   13.6430  -16.9240 C.3    52  VAL52       0.0019
     94  N          8.6130   10.2640  -20.2790 N.3    68  PHE68      -0.1241
     95  CA         7.8790    9.1320  -19.6900 C.3    68  PHE68       0.1605
     96  C          6.3930    9.4810  -19.5020 C.2    68  PHE68       0.2264
     97  O          6.0200   10.6550  -19.4990 O.2    68  PHE68      -0.2867
     98  CB         8.5220    8.6980  -18.3540 C.3    68  PHE68       0.0534
     99  CG         8.4750    9.7350  -17.2450 C.ar   68  PHE68      -0.0203
    100  CD1        9.5170   10.6730  -17.1080 C.ar   68  PHE68      -0.0042
    101  CD2        7.3880    9.7640  -16.3490 C.ar   68  PHE68      -0.0042
    102  CE1        9.4600   11.6480  -16.0950 C.ar   68  PHE68      -0.0003
    103  CE2        7.3300   10.7420  -15.3410 C.ar   68  PHE68      -0.0003
    104  CZ         8.3610   11.6890  -15.2190 C.ar   68  PHE68      -0.0000
    105  N          2.6410    9.2620  -17.3060 N.3    70  VAL70      -0.1245
    106  CA         1.9800    9.1710  -16.0000 C.3    70  VAL70       0.1561
    107  C          1.2470    7.8270  -15.8360 C.2    70  VAL70       0.2260
    108  O          1.1850    7.3010  -14.7230 O.2    70  VAL70      -0.2867
    109  CB         1.0160   10.3630  -15.8360 C.3    70  VAL70       0.0252
    110  CG1        0.2560   10.2940  -14.5140 C.3    70  VAL70       0.0019
    111  CG2        1.7590   11.7070  -15.8480 C.3    70  VAL70       0.0019
    112  N          4.8460    4.8500  -15.7760 N.3    73  PRO73      -0.2116
    113  CA         5.9930    5.4570  -15.0840 C.3    73  PRO73       0.1372
    114  C          7.1470    4.4600  -14.8390 C.2    73  PRO73       0.2244
    115  O          7.8770    4.5750  -13.8560 O.2    73  PRO73      -0.2868
    116  CB         5.3890    6.0330  -13.7950 C.3    73  PRO73       0.0268
    117  CG         4.3320    4.9890  -13.4410 C.3    73  PRO73       0.0207
    118  CD         3.7740    4.6120  -14.8120 C.3    73  PRO73       0.0892
    119  N         10.6230    5.7040  -14.0540 N.3    76  LEU76      -0.1231
    120  CA        10.5200    6.4970  -12.8280 C.3    76  LEU76       0.1693
    121  C         10.5800    5.5980  -11.5840 C.2    76  LEU76       0.2592
    122  O         11.3910    5.8360  -10.6930 O.2    76  LEU76      -0.2718
    123  CB         9.2290    7.3350  -12.8590 C.3    76  LEU76       0.0284
    124  CG         9.2860    8.5310  -11.8960 C.3    76  LEU76       0.0019
    125  CD1       10.0530    9.6880  -12.5340 C.3    76  LEU76       0.0001
    126  CD2        7.8760    9.0110  -11.5710 C.3    76  LEU76       0.0001
    127  N          9.7850    4.5240  -11.5440 N.am   77  TYR77      -0.1976
    128  CA         9.8440    3.5330  -10.4590 C.3    77  TYR77       0.1639
    129  C         11.2040    2.8300  -10.4160 C.2    77  TYR77       0.2290
    130  O         11.7500    2.6110   -9.3340 O.2    77  TYR77      -0.2864
    131  CB         8.7190    2.5000  -10.6100 C.3    77  TYR77       0.0560
    132  CG         7.3850    2.9430  -10.0260 C.ar   77  TYR77      -0.0198
    133  CD1        6.6660    4.0120  -10.5990 C.ar   77  TYR77      -0.0009
    134  CD2        6.8780    2.3020   -8.8770 C.ar   77  TYR77      -0.0009
    135  CE1        5.4500    4.4400  -10.0300 C.ar   77  TYR77       0.0417
    136  CE2        5.6590    2.7220   -8.3090 C.ar   77  TYR77       0.0417
    137  CZ         4.9400    3.7920   -8.8830 C.ar   77  TYR77       0.1957
    138  OH         3.7620    4.1910   -8.3260 O.3    77  TYR77      -0.2866
    139  N          3.9850    2.6060   -2.6830 N.3    89  THR89      -0.1218
    140  CA         2.6050    3.0420   -2.3810 C.3    89  THR89       0.1862
    141  C          1.5880    2.5720   -3.4290 C.2    89  THR89       0.2287
    142  O          1.9430    2.2460   -4.5720 O.2    89  THR89      -0.2866
    143  CB         2.5500    4.5710   -2.1950 C.3    89  THR89       0.1770
    144  OG1        1.2720    4.9740   -1.7420 O.3    89  THR89      -0.2211
    145  CG2        2.9020    5.3870   -3.4450 C.3    89  THR89       0.0375
@<TRIPOS>BOND
     1    85    86   ar
     2    85    83   ar
     3    86    84   ar
     4    83    82   ar
     5    84    82   ar
     6    68    69    1
     7    59    58    2
     8    82    81    1
     9    58    57    1
    10    90    89    2
    11    89    88    1
    12    76    74   am
    13    94    95    1
    14    73    74    1
    15    73    72    1
    16    69    72    1
    17    69    70    1
    18    57    56    1
    19    57    60    1
    20    87    88    1
    21    81    78    1
    22    77    70   am
    23    77    78    1
    24    95    96    1
    25    95    98    1
    26    74    75    2
    27    79    78    1
    28    79    80    2
    29    96    97    2
    30    70    71    2
    31    88    91    1
    32    63    65   ar
    33    63    61   ar
    34    60    61    1
    35    65    66   ar
    36    61    62   ar
    37    98    99    1
    38    91    92    1
    39    91    93    1
    40    66    67    1
    41    66    64   ar
    42    62    64   ar
    43   105   106    1
    44    99   100   ar
    45    99   101   ar
    46   100   102   ar
    47   101   103   ar
    48   102   104   ar
    49   106   109    1
    50   106   107    1
    51   111   109    1
    52   109   110    1
    53   107   108    2
    54   112   113    1
    55   112   118    1
    56   103   104   ar
    57    46    44    1
    58   113   114    1
    59   113   116    1
    60    55    54    1
    61    43    42    2
    62   114   115    2
    63   118   117    1
    64   119   120    1
    65    51    50    2
    66    42    41    1
    67    42    48   am
    68   116   117    1
    69    44    45    1
    70    44    41    1
    71    45    47    1
    72    41    40    1
    73    49    50    1
    74    49    48    1
    75    49    52    1
    76    54    53    1
    77    53    52    1
    78   123   120    1
    79   123   124    1
    80   120   121    1
    81   125   124    1
    82   124   126    1
    83   121   127   am
    84   121   122    2
    85   127   128    1
    86    39    38    2
    87   131   128    1
    88   131   132    1
    89   133   135   ar
    90   133   132   ar
    91   128   129    1
    92   129   130    2
    93    31    30    2
    94   135   137   ar
    95   132   134   ar
    96    37    38    1
    97    37    36    1
    98    30    36   am
    99    30    29    1
   100    35    33    1
   101    17    16    1
   102   137   138    1
   103   137   136   ar
   104   134   136   ar
   105    32    29    1
   106    32    33    1
   107    29    28    1
   108    34    33    1
   109    16    15    1
   110    13    12    2
   111    15    14    1
   112    21    20    2
   113    12    11    1
   114    12    18   am
   115    14    11    1
   116    11    10    1
   117    20    19    1
   118    18    19    1
   119    19    22    1
   120   142   141    2
   121    24    26   ar
   122    24    23   ar
   123    26    27   ar
   124   145   143    1
   125   141   140    1
   126    22    23    1
   127    23    25   ar
   128    27    25   ar
   129   139   140    1
   130   140   143    1
   131     4     3    2
   132   143   144    1
   133     3     2    1
   134     2     1    1
   135     2     5    1
   136     5     6    1
   137     6     7    1
   138     7     8    1
   139     8     9    1
