@<TRIPOS>MOLECULE
tmp/2n27A00.pdb
 189 174 0 0 0
SMALL
GASTEIGER

@<TRIPOS>ATOM
      1  N        -15.2240   -6.5960   -1.2020 N.3    32  LEU32      -0.1245
      2  CA       -13.7690   -6.5460   -1.0860 C.3    32  LEU32       0.1561
      3  C        -13.1320   -7.5760   -2.0180 C.2    32  LEU32       0.2260
      4  O        -12.1450   -7.2900   -2.6950 O.2    32  LEU32      -0.2867
      5  CB       -13.3500   -6.8240    0.3660 C.3    32  LEU32       0.0270
      6  CG       -11.8190   -6.8720    0.4930 C.3    32  LEU32       0.0019
      7  CD1      -11.2000   -5.5530    0.0060 C.3    32  LEU32       0.0001
      8  CD2      -11.4510   -7.0950    1.9610 C.3    32  LEU32       0.0001
      9  N         -4.6380  -11.4270   -4.0560 N.3    42  ASN42      -0.1240
     10  CA        -4.1780  -10.8030   -2.8120 C.3    42  ASN42       0.1653
     11  C         -4.6460  -11.6030   -1.5860 C.2    42  ASN42       0.2266
     12  O         -5.5080  -11.1330   -0.8480 O.2    42  ASN42      -0.2867
     13  CB        -4.7420   -9.3770   -2.7210 C.3    42  ASN42       0.1155
     14  CG        -4.2660   -8.7130   -1.4320 C.2    42  ASN42       0.2627
     15  OD1       -3.2440   -9.1080   -0.8730 O.2    42  ASN42      -0.2716
     16  ND2       -4.9470   -7.7210   -0.9250 N.am   42  ASN42      -0.0877
     17  N         -4.2630  -11.6300    1.1490 N.3    44  THR44      -0.1203
     18  CA        -4.5220  -10.7390    2.2730 C.3    44  THR44       0.1994
     19  C         -5.9990  -10.7570    2.6380 C.2    44  THR44       0.2617
     20  O         -6.3680  -10.5630    3.7900 O.2    44  THR44      -0.2717
     21  CB        -4.1100   -9.3070    1.9120 C.3    44  THR44       0.1784
     22  OG1       -2.7850   -9.3000    1.4180 O.3    44  THR44      -0.2211
     23  CG2       -4.1980   -8.4070    3.1440 C.3    44  THR44       0.0376
     24  N         -6.8400  -10.9890    1.6410 N.am   45  GLU45      -0.1979
     25  CA        -8.2810  -11.0320    1.8600 C.3    45  GLU45       0.1602
     26  C         -8.7100  -12.4320    2.2790 C.2    45  GLU45       0.2287
     27  O         -9.6250  -12.5990    3.0870 O.2    45  GLU45      -0.2864
     28  CB        -9.0030  -10.6410    0.5740 C.3    45  GLU45       0.0415
     29  CG        -8.6360   -9.2010    0.2080 C.3    45  GLU45       0.1163
     30  CD        -9.3210   -8.8100   -1.0940 C.2    45  GLU45       0.3649
     31  OE1      -10.0840   -9.6140   -1.5950 O.co2  45  GLU45      -0.2457
     32  OE2       -9.0770   -7.7110   -1.5660 O.co2  45  GLU45      -0.2457
     33  N         -7.8170  -12.7500    5.9010 N.3    48  LEU48      -0.1245
     34  CA        -8.6710  -11.8040    6.6160 C.3    48  LEU48       0.1561
     35  C        -10.1430  -12.2050    6.5250 C.2    48  LEU48       0.2260
     36  O        -10.9150  -11.9410    7.4450 O.2    48  LEU48      -0.2867
     37  CB        -8.4900  -10.3790    6.0850 C.3    48  LEU48       0.0270
     38  CG        -7.1030   -9.8360    6.4590 C.3    48  LEU48       0.0019
     39  CD1       -6.9340   -8.4530    5.8210 C.3    48  LEU48       0.0001
     40  CD2       -6.9680   -9.7270    7.9940 C.3    48  LEU48       0.0001
     41  N        -11.2550  -13.2530    9.5260 N.3    51  MET51      -0.1230
     42  CA       -11.1600  -12.1690   10.5010 C.3    51  MET51       0.1702
     43  C        -12.3210  -11.1870   10.3410 C.2    51  MET51       0.2592
     44  O        -12.8750  -10.7040   11.3290 O.2    51  MET51      -0.2718
     45  CB        -9.8320  -11.4190   10.3330 C.3    51  MET51       0.0401
     46  CG        -9.6900  -10.3780   11.4520 C.3    51  MET51       0.0596
     47  SD        -8.0870   -9.5380   11.3210 S.3    51  MET51      -0.1393
     48  CE        -8.6380   -8.0850   10.3890 C.3    51  MET51       0.0692
     49  N        -12.6720  -10.8800    9.0950 N.am   52  ILE52      -0.1980
     50  CA       -13.7540   -9.9380    8.8220 C.3    52  ILE52       0.1595
     51  C        -15.0810  -10.4480    9.3740 C.2    52  ILE52       0.2287
     52  O        -15.7830   -9.7280   10.0750 O.2    52  ILE52      -0.2864
     53  CB       -13.8890   -9.7180    7.3090 C.3    52  ILE52       0.0276
     54  CG1      -12.5750   -9.1590    6.7490 C.3    52  ILE52       0.0022
     55  CG2      -15.0310   -8.7310    7.0360 C.3    52  ILE52       0.0022
     56  CD1      -12.6080   -9.1830    5.2150 C.3    52  ILE52       0.0001
     57  N        -20.5710   -4.6060    7.0680 N.3    63  ILE63      -0.1245
     58  CA       -20.2830   -3.4250    7.8850 C.3    63  ILE63       0.1561
     59  C        -20.9810   -2.2040    7.2970 C.2    63  ILE63       0.2260
     60  O        -20.9580   -1.9840    6.0840 O.2    63  ILE63      -0.2867
     61  CB       -18.7730   -3.1780    7.9460 C.3    63  ILE63       0.0252
     62  CG1      -18.0860   -4.3880    8.5830 C.3    63  ILE63       0.0019
     63  CG2      -18.4890   -1.9340    8.7900 C.3    63  ILE63       0.0019
     64  CD1      -16.5690   -4.2550    8.4240 C.3    63  ILE63       0.0001
     65  N        -13.8120    2.4590   11.2930 N.3    71  MET71      -0.1230
     66  CA       -12.9420    1.2860   11.2270 C.3    71  MET71       0.1702
     67  C        -11.7070    1.5670   10.3790 C.2    71  MET71       0.2592
     68  O        -10.5840    1.2600   10.7800 O.2    71  MET71      -0.2718
     69  CB       -13.7120    0.1080   10.6290 C.3    71  MET71       0.0401
     70  CG       -12.8110   -1.1300   10.5800 C.3    71  MET71       0.0596
     71  SD       -13.7720   -2.5530   10.0090 S.3    71  MET71      -0.1393
     72  CE       -13.5630   -2.2780    8.2330 C.3    71  MET71       0.0692
     73  N        -11.9220    2.1450    9.2050 N.am   72  MET72      -0.1979
     74  CA       -10.8190    2.4590    8.3070 C.3    72  MET72       0.1605
     75  C         -9.9220    3.5220    8.9250 C.2    72  MET72       0.2287
     76  O         -8.7000    3.4790    8.7830 O.2    72  MET72      -0.2864
     77  CB       -11.3610    2.9530    6.9610 C.3    72  MET72       0.0413
     78  CG       -12.0910    1.8070    6.2460 C.3    72  MET72       0.0598
     79  SD       -10.9100    0.5160    5.7720 S.3    72  MET72      -0.1393
     80  CE       -10.3800    1.2250    4.1910 C.3    72  MET72       0.0692
     81  N         -7.9320    1.7060   11.6730 N.3    75  LYS75      -0.1231
     82  CA        -7.0920    0.7040   11.0210 C.3    75  LYS75       0.1693
     83  C         -6.0430    1.3730   10.1360 C.2    75  LYS75       0.2591
     84  O         -4.8780    0.9740   10.1320 O.2    75  LYS75      -0.2718
     85  CB        -7.9670   -0.2170   10.1600 C.3    75  LYS75       0.0285
     86  CG        -8.8800   -1.0880   11.0420 C.3    75  LYS75       0.0035
     87  CD        -8.1080   -2.3070   11.5700 C.3    75  LYS75       0.0206
     88  CE        -9.0560   -3.1970   12.3760 C.3    75  LYS75       0.1093
     89  NZ        -8.3420   -4.4400   12.7870 N.3    75  LYS75      -0.1314
     90  N         -6.4680    2.3840    9.3810 N.am   76  MET76      -0.1979
     91  CA        -5.5650    3.1070    8.4800 C.3    76  MET76       0.1605
     92  C         -5.2050    4.4630    9.0770 C.2    76  MET76       0.2287
     93  O         -6.0840    5.2380    9.4520 O.2    76  MET76      -0.2864
     94  CB        -6.2470    3.3080    7.1200 C.3    76  MET76       0.0413
     95  CG        -6.9670    2.0170    6.7170 C.3    76  MET76       0.0598
     96  SD        -5.7900    0.6390    6.7030 S.3    76  MET76      -0.1393
     97  CE        -5.4010    0.6710    4.9370 C.3    76  MET76       0.0692
     98  N         13.9630    0.7460    8.5940 N.3    92  PHE92      -0.1241
     99  CA        13.2710   -0.1190    7.6460 C.3    92  PHE92       0.1605
    100  C         14.1200   -0.3360    6.3980 C.2    92  PHE92       0.2264
    101  O         14.2820   -1.4650    5.9400 O.2    92  PHE92      -0.2867
    102  CB        11.9230    0.5030    7.2540 C.3    92  PHE92       0.0534
    103  CG        11.0340   -0.5520    6.6310 C.ar   92  PHE92      -0.0203
    104  CD1       10.4600   -1.5410    7.4390 C.ar   92  PHE92      -0.0042
    105  CD2       10.7760   -0.5370    5.2550 C.ar   92  PHE92      -0.0042
    106  CE1        9.6300   -2.5140    6.8740 C.ar   92  PHE92      -0.0003
    107  CE2        9.9450   -1.5120    4.6870 C.ar   92  PHE92      -0.0003
    108  CZ         9.3710   -2.5000    5.4980 C.ar   92  PHE92      -0.0000
    109  N         10.9610   -8.4610    1.7570 N.3   105  LEU105     -0.1245
    110  CA         9.8360   -7.9710    2.5580 C.3   105  LEU105      0.1561
    111  C          9.2230   -9.1070    3.3810 C.2   105  LEU105      0.2260
    112  O          8.8710   -8.9360    4.5470 O.2   105  LEU105     -0.2867
    113  CB         8.7640   -7.3880    1.6260 C.3   105  LEU105      0.0270
    114  CG         7.6270   -6.7590    2.4460 C.3   105  LEU105      0.0019
    115  CD1        8.1540   -5.5360    3.2230 C.3   105  LEU105      0.0001
    116  CD2        6.5050   -6.3200    1.4990 C.3   105  LEU105      0.0001
    117  N          8.1300   -9.5860    7.2470 N.3   109  MET109     -0.1245
    118  CA         6.7560   -9.8990    7.6290 C.3   109  MET109      0.1570
    119  C          6.7140  -11.1320    8.5310 C.2   109  MET109      0.2261
    120  O          5.8940  -11.2150    9.4460 O.2   109  MET109     -0.2867
    121  CB         5.9080  -10.1470    6.3730 C.3   109  MET109      0.0387
    122  CG         5.7290   -8.8390    5.5910 C.3   109  MET109      0.0595
    123  SD         4.7270   -7.6720    6.5520 S.3   109  MET109     -0.1393
    124  CE         3.0930   -8.3510    6.1540 C.3   109  MET109      0.0692
    125  N         -1.4940  -13.3120    9.2690 N.3   116  LEU116     -0.1245
    126  CA        -1.9450  -13.1530    7.8870 C.3   116  LEU116      0.1561
    127  C         -1.2720  -14.1940    6.9950 C.2   116  LEU116      0.2260
    128  O         -0.4240  -14.9570    7.4500 O.2   116  LEU116     -0.2867
    129  CB        -1.5950  -11.7500    7.3840 C.3   116  LEU116      0.0270
    130  CG        -2.1210  -10.6960    8.3630 C.3   116  LEU116      0.0019
    131  CD1       -1.7620   -9.3020    7.8450 C.3   116  LEU116      0.0001
    132  CD2       -3.6460  -10.8200    8.5010 C.3   116  LEU116      0.0001
    133  N          1.4800  -10.6620    0.1460 N.3   121  VAL121     -0.1245
    134  CA         2.4130   -9.6900   -0.4180 C.3   121  VAL121      0.1561
    135  C          3.0740  -10.2040   -1.6930 C.2   121  VAL121      0.2260
    136  O          3.2740   -9.4430   -2.6310 O.2   121  VAL121     -0.2867
    137  CB         3.5020   -9.3590    0.6050 C.3   121  VAL121      0.0252
    138  CG1        2.8630   -8.8440    1.9200 C.3   121  VAL121      0.0019
    139  CG2        4.3280  -10.6210    0.8780 C.3   121  VAL121      0.0019
    140  N          0.1590  -10.0400   -4.2430 N.3   124  MET124     -0.1230
    141  CA        -0.4160   -8.6980   -4.2780 C.3   124  MET124      0.1702
    142  C          0.5720   -7.7290   -4.9000 C.2   124  MET124      0.2592
    143  O          0.2180   -6.9340   -5.7740 O.2   124  MET124     -0.2718
    144  CB        -0.7670   -8.2320   -2.8630 C.3   124  MET124      0.0401
    145  CG        -1.3520   -6.8120   -2.9080 C.3   124  MET124      0.0596
    146  SD        -0.0060   -5.6020   -2.9380 S.3   124  MET124     -0.1393
    147  CE         0.2750   -5.5190   -1.1550 C.3   124  MET124      0.0692
    148  N          1.8140   -7.8080   -4.4580 N.am  125  ILE125     -0.1980
    149  CA         2.8500   -6.9400   -4.9900 C.3   125  ILE125      0.1595
    150  C          3.1640   -7.3080   -6.4270 C.2   125  ILE125      0.2287
    151  O          3.8120   -6.5400   -7.1380 O.2   125  ILE125     -0.2864
    152  CB         4.1340   -7.0490   -4.1550 C.3   125  ILE125      0.0276
    153  CG1        3.8930   -6.4420   -2.7710 C.3   125  ILE125      0.0022
    154  CG2        5.2760   -6.3050   -4.8600 C.3   125  ILE125      0.0022
    155  CD1        5.0600   -6.7990   -1.8540 C.3   125  ILE125      0.0001
    156  N          9.5860   -1.4440   -2.3420 N.3   136  VAL136     -0.1245
    157  CA         9.0020   -0.5760   -1.3140 C.3   136  VAL136      0.1561
    158  C         10.0330    0.4470   -0.8460 C.2   136  VAL136      0.2260
    159  O         11.2030    0.1130   -0.6360 O.2   136  VAL136     -0.2867
    160  CB         8.5340   -1.4160   -0.1160 C.3   136  VAL136      0.0252
    161  CG1        8.1710   -0.5000    1.0610 C.3   136  VAL136      0.0019
    162  CG2        7.3030   -2.2340   -0.5150 C.3   136  VAL136      0.0019
    163  N          5.7890    4.4800    0.5770 N.3   141  PHE141     -0.1241
    164  CA         5.1250    4.2440    1.8580 C.3   141  PHE141      0.1605
    165  C          3.9560    5.2090    2.0440 C.2   141  PHE141      0.2264
    166  O          2.8770    4.8090    2.4810 O.2   141  PHE141     -0.2867
    167  CB         6.1470    4.4080    3.0090 C.3   141  PHE141      0.0534
    168  CG         6.5500    3.0510    3.5690 C.ar  141  PHE141     -0.0203
    169  CD1        5.6240    2.3020    4.3060 C.ar  141  PHE141     -0.0042
    170  CD2        7.8400    2.5500    3.3520 C.ar  141  PHE141     -0.0042
    171  CE1        5.9900    1.0540    4.8290 C.ar  141  PHE141     -0.0003
    172  CE2        8.2030    1.3040    3.8750 C.ar  141  PHE141     -0.0003
    173  CZ         7.2790    0.5570    4.6130 C.ar  141  PHE141     -0.0000
    174  N          1.2340    4.1290   -0.0300 N.3   144  MET144     -0.1230
    175  CA         0.7370    2.8320    0.4180 C.3   144  MET144      0.1702
    176  C         -0.4280    3.0030    1.3880 C.2   144  MET144      0.2592
    177  O         -1.4250    2.2900    1.2990 O.2   144  MET144     -0.2718
    178  CB         1.8620    2.0430    1.0950 C.3   144  MET144      0.0401
    179  CG         1.3470    0.6580    1.4980 C.3   144  MET144      0.0596
    180  SD         2.7100   -0.3280    2.1680 S.3   144  MET144     -0.1393
    181  CE         2.5190    0.1580    3.9010 C.3   144  MET144      0.0692
    182  N         -0.2990    3.9550    2.3140 N.am  145  MET145     -0.1979
    183  CA        -1.3540    4.2180    3.3020 C.3   145  MET145      0.1605
    184  C         -1.9380    5.6130    3.1100 C.2   145  MET145      0.2287
    185  O         -1.2100    6.5750    2.8590 O.2   145  MET145     -0.2864
    186  CB        -0.7930    4.0910    4.7200 C.3   145  MET145      0.0413
    187  CG        -0.4470    2.6260    5.0020 C.3   145  MET145      0.0598
    188  SD         0.0540    2.4320    6.7350 S.3   145  MET145     -0.1393
    189  CE         1.6840    3.2090    6.6100 C.3   145  MET145      0.0692
@<TRIPOS>BOND
     1   151   150    2
     2   150   149    1
     3   143   142    2
     4   149   148    1
     5   149   152    1
     6   142   148   am
     7   142   141    1
     8   154   152    1
     9   141   140    1
    10   141   144    1
    11   152   153    1
    12     9    10    1
    13   146   145    1
    14   146   147    1
    15   145   144    1
    16    10    13    1
    17    10    11    1
    18   153   155    1
    19    13    14    1
    20     4     3    2
    21   136   135    2
    22   156   157    1
    23     3     2    1
    24   135   134    1
    25    31    30   ar
    26    11    12    2
    27    32    30   ar
    28    14    16   am
    29    14    15    2
    30   157   158    1
    31   157   160    1
    32     1     2    1
    33    30    29    1
    34     2     5    1
    35   158   159    2
    36   162   160    1
    37   134   133    1
    38   134   137    1
    39   160   161    1
    40   174   175    1
    41     7     6    1
    42    29    28    1
    43     5     6    1
    44   175   178    1
    45   175   176    1
    46     6     8    1
    47    28    25    1
    48   163   164    1
    49   137   139    1
    50   137   138    1
    51   178   179    1
    52    17    18    1
    53   177   176    2
    54   176   182   am
    55    22    21    1
    56   179   180    1
    57   116   114    1
    58   113   114    1
    59   113   110    1
    60    24    25    1
    61    24    19   am
    62   109   110    1
    63   164   165    1
    64   164   167    1
    65    25    26    1
    66    21    18    1
    67    21    23    1
    68   165   166    2
    69   180   181    1
    70    18    19    1
    71    26    27    2
    72   182   183    1
    73   114   115    1
    74   110   111    1
    75    19    20    2
    76   185   184    2
    77   167   168    1
    78   184   183    1
    79   183   186    1
    80   170   168   ar
    81   170   172   ar
    82   111   112    2
    83   168   169   ar
    84   172   173   ar
    85    80    79    1
    86   169   171   ar
    87   173   171   ar
    88   107   105   ar
    89   107   108   ar
    90   186   187    1
    91    97    96    1
    92   187   188    1
    93    56    54    1
    94   105   103   ar
    95   108   106   ar
    96   122   121    1
    97   122   123    1
    98    79    78    1
    99    39    38    1
   100    33    34    1
   101   101   100    2
   102    60    59    2
   103    37    38    1
   104    37    34    1
   105   124   123    1
   106    78    77    1
   107   121   118    1
   108   100    99    1
   109    38    40    1
   110    35    34    1
   111    35    36    2
   112   189   188    1
   113   103   102    1
   114   103   104   ar
   115    96    95    1
   116    95    94    1
   117    54    53    1
   118   106   104   ar
   119    77    74    1
   120   127   128    2
   121   127   126    1
   122    55    53    1
   123    57    58    1
   124    94    91    1
   125   117   118    1
   126   102    99    1
   127    59    58    1
   128    53    50    1
   129   129   126    1
   130   129   130    1
   131   118   119    1
   132    99    98    1
   133   131   130    1
   134    58    61    1
   135   126   125    1
   136    61    62    1
   137    61    63    1
   138    72    71    1
   139    74    75    1
   140    74    73    1
   141   130   132    1
   142    64    62    1
   143    91    92    1
   144    91    90    1
   145   119   120    2
   146    76    75    2
   147    50    49    1
   148    50    51    1
   149    92    93    2
   150    49    43   am
   151    73    67   am
   152    51    52    2
   153    90    83   am
   154    41    42    1
   155    71    70    1
   156    84    83    2
   157    83    82    1
   158    85    82    1
   159    85    86    1
   160    45    42    1
   161    45    46    1
   162    43    42    1
   163    43    44    2
   164    67    68    2
   165    67    66    1
   166    48    47    1
   167    70    69    1
   168    69    66    1
   169    82    81    1
   170    86    87    1
   171    66    65    1
   172    47    46    1
   173    87    88    1
   174    88    89    1
