@<TRIPOS>MOLECULE
tmp/2n5hA00.pdb
 89 83 0 0 0
SMALL
GASTEIGER

@<TRIPOS>ATOM
      1  N         -3.7480   -9.6970    1.8350 N.3    35  LEU35      -0.1245
      2  CA        -5.0260  -10.2500    1.3390 C.3    35  LEU35       0.1561
      3  C         -5.4640  -11.4940    2.1270 C.2    35  LEU35       0.2260
      4  O         -6.6670  -11.7440    2.2630 O.2    35  LEU35      -0.2867
      5  CB        -4.9230  -10.5990   -0.1570 C.3    35  LEU35       0.0270
      6  CG        -4.5810   -9.4200   -1.1090 C.3    35  LEU35       0.0019
      7  CD1       -4.4830   -9.9060   -2.5600 C.3    35  LEU35       0.0001
      8  CD2       -5.5780   -8.2390   -0.9680 C.3    35  LEU35       0.0001
      9  N         -7.3610   -5.9110    3.3670 N.3    40  LEU40      -0.1231
     10  CA        -7.5020   -5.0820    2.1540 C.3    40  LEU40       0.1693
     11  C         -8.6910   -5.5720    1.3130 C.2    40  LEU40       0.2592
     12  O         -8.6780   -6.6710    0.7550 O.2    40  LEU40      -0.2718
     13  CB        -6.2070   -5.0940    1.2960 C.3    40  LEU40       0.0284
     14  CG        -4.8820   -4.6500    1.9970 C.3    40  LEU40       0.0019
     15  CD1       -3.7490   -4.4600    0.9670 C.3    40  LEU40       0.0001
     16  CD2       -5.0740   -3.3900    2.8740 C.3    40  LEU40       0.0001
     17  N         -9.7190   -4.7260    1.2820 N.am   41  ASN41      -0.1960
     18  CA       -10.9450   -4.8900    0.4780 C.3    41  ASN41       0.1819
     19  C        -11.4580   -3.4580    0.1880 C.2    41  ASN41       0.2622
     20  O        -10.9940   -2.5260    0.8390 O.2    41  ASN41      -0.2715
     21  CB       -11.9750   -5.7600    1.2770 C.3    41  ASN41       0.1195
     22  CG       -13.1720   -6.3100    0.4710 C.2    41  ASN41       0.2630
     23  OD1      -13.6560   -5.7060   -0.4780 O.2    41  ASN41      -0.2716
     24  ND2      -13.6500   -7.4890    0.8470 N.am   41  ASN41      -0.0877
     25  N        -12.4030   -3.2960   -0.7620 N.am   42  SER42      -0.1950
     26  CA       -12.8890   -1.9830   -1.2690 C.3    42  SER42       0.1924
     27  C        -13.1470   -0.9100   -0.1640 C.2    42  SER42       0.2314
     28  O        -12.8910    0.2770   -0.3800 O.2    42  SER42      -0.2863
     29  CB       -14.1570   -2.2250   -2.1210 C.3    42  SER42       0.2116
     30  OG       -14.5960   -1.0790   -2.8420 O.3    42  SER42      -0.2180
     31  N         -9.1420   -0.3580    1.2240 N.3    45  ILE45      -0.1231
     32  CA        -8.0600   -0.1880    0.2270 C.3    45  ILE45       0.1692
     33  C         -7.9960    1.2540   -0.3350 C.2    45  ILE45       0.2591
     34  O         -6.9470    1.7120   -0.7920 O.2    45  ILE45      -0.2718
     35  CB        -8.2470   -1.2240   -0.9450 C.3    45  ILE45       0.0266
     36  CG1       -6.9720   -1.3270   -1.8270 C.3    45  ILE45       0.0019
     37  CG2       -9.4940   -0.8800   -1.8130 C.3    45  ILE45       0.0020
     38  CD1       -7.0230   -2.4330   -2.8660 C.3    45  ILE45       0.0001
     39  N         -9.1410    1.9500   -0.2620 N.am   46  VAL46      -0.1980
     40  CA        -9.2990    3.3230   -0.7420 C.3    46  VAL46       0.1595
     41  C         -8.5560    4.3370    0.1600 C.2    46  VAL46       0.2287
     42  O         -8.0700    5.3570   -0.3380 O.2    46  VAL46      -0.2864
     43  CB       -10.8200    3.6930   -0.8760 C.3    46  VAL46       0.0276
     44  CG1      -11.5050    2.7740   -1.9190 C.3    46  VAL46       0.0022
     45  CG2      -11.5580    3.6510    0.4920 C.3    46  VAL46       0.0022
     46  N         -5.1820    3.9720   -1.1030 N.3    49  MET49      -0.1245
     47  CA        -5.1640    4.5630   -2.4450 C.3    49  MET49       0.1570
     48  C         -4.9660    6.0950   -2.3950 C.2    49  MET49       0.2261
     49  O         -4.2600    6.6590   -3.2360 O.2    49  MET49      -0.2867
     50  CB        -6.4860    4.2220   -3.1560 C.3    49  MET49       0.0387
     51  CG        -6.5830    4.7320   -4.5890 C.3    49  MET49       0.0595
     52  SD        -8.2440    4.5870   -5.2500 S.3    49  MET49      -0.1393
     53  CE        -8.5410    2.8300   -5.0850 C.3    49  MET49       0.0692
     54  N         -8.1920    2.9270  -10.5290 N.3    62  SER62      -0.1217
     55  CA        -9.0820    1.8800   -9.9860 C.3    62  SER62       0.1889
     56  C         -8.8750    0.5320  -10.7120 C.2    62  SER62       0.2288
     57  O         -8.9750   -0.5360  -10.0970 O.2    62  SER62      -0.2866
     58  CB       -10.5400    2.3500  -10.1220 C.3    62  SER62       0.2089
     59  OG       -10.8180    2.7400  -11.4590 O.3    62  SER62      -0.2183
     60  N         -6.2890   -1.8350   -9.2360 N.3    65  ILE65      -0.1231
     61  CA        -6.6550   -2.5540   -8.0020 C.3    65  ILE65       0.1692
     62  C         -6.9460   -4.0370   -8.3380 C.2    65  ILE65       0.2593
     63  O         -8.0270   -4.4020   -8.8240 O.2    65  ILE65      -0.2718
     64  CB        -7.8580   -1.8690   -7.2170 C.3    65  ILE65       0.0266
     65  CG1       -7.4450   -0.5040   -6.5250 C.3    65  ILE65       0.0019
     66  CG2       -8.4450   -2.8280   -6.1530 C.3    65  ILE65       0.0020
     67  CD1       -6.7680    0.5260   -7.3940 C.3    65  ILE65       0.0001
     68  N         -5.9120   -4.8540   -8.1350 N.am   66  THR66      -0.1939
     69  CA        -5.9600   -6.3040   -8.2870 C.3    66  THR66       0.2028
     70  C         -5.0100   -6.9500   -7.2700 C.2    66  THR66       0.2642
     71  O         -4.0780   -6.2990   -6.7600 O.2    66  THR66      -0.2714
     72  CB        -5.6370   -6.7570   -9.7560 C.3    66  THR66       0.1808
     73  OG1       -5.6080   -8.1900   -9.8430 O.3    66  THR66      -0.2208
     74  CG2       -4.3140   -6.1820  -10.2780 C.3    66  THR66       0.0379
     75  N         -5.2550   -8.2400   -7.0120 N.am   67  GLY67      -0.1954
     76  CA        -4.6500   -8.9740   -5.9150 C.3    67  GLY67       0.1869
     77  C         -3.1250   -8.9700   -5.8880 C.2    67  GLY67       0.2309
     78  O         -2.5340   -8.6910   -4.8580 O.2    67  GLY67      -0.2863
     79  N         -1.5590   -5.8360   -4.3960 N.3    70  PHE70      -0.1241
     80  CA        -2.0330   -5.5850   -3.0100 C.3    70  PHE70       0.1605
     81  C         -1.8820   -6.8430   -2.1350 C.2    70  PHE70       0.2264
     82  O         -2.4110   -6.9220   -1.0240 O.2    70  PHE70      -0.2867
     83  CB        -3.4880   -5.0530   -3.0570 C.3    70  PHE70       0.0534
     84  CG        -3.5750   -3.6370   -3.6410 C.ar   70  PHE70      -0.0203
     85  CD1       -3.3860   -2.5270   -2.8210 C.ar   70  PHE70      -0.0042
     86  CD2       -3.8010   -3.4210   -5.0030 C.ar   70  PHE70      -0.0042
     87  CE1       -3.4350   -1.2460   -3.3340 C.ar   70  PHE70      -0.0003
     88  CE2       -3.8470   -2.1370   -5.5180 C.ar   70  PHE70      -0.0003
     89  CZ        -3.6590   -1.0500   -4.6810 C.ar   70  PHE70      -0.0000
@<TRIPOS>BOND
     1    59    58    1
     2    56    57    2
     3    56    55    1
     4    54    55    1
     5    74    72    1
     6    58    55    1
     7    73    72    1
     8    72    69    1
     9    60    61    1
    10    63    62    2
    11    62    68   am
    12    62    61    1
    13    69    68    1
    14    69    70    1
    15    61    64    1
    16    67    65    1
    17    70    75   am
    18    70    71    2
    19    64    65    1
    20    64    66    1
    21    75    76    1
    22    76    77    1
    23    77    78    2
    24    88    86   ar
    25    88    89   ar
    26    52    53    1
    27    52    51    1
    28    86    84   ar
    29    89    87   ar
    30    51    50    1
    31    79    80    1
    32    84    83    1
    33    84    85   ar
    34    87    85   ar
    35    49    48    2
    36    50    47    1
    37    83    80    1
    38    80    81    1
    39    38    36    1
    40    30    29    1
    41     7     6    1
    42    47    48    1
    43    47    46    1
    44    81    82    2
    45    29    26    1
    46    44    43    1
    47    36    35    1
    48    37    35    1
    49    26    25    1
    50    26    27    1
    51     6     8    1
    52     6     5    1
    53    35    32    1
    54    43    40    1
    55    43    45    1
    56    34    33    2
    57    25    19   am
    58    40    39    1
    59    40    41    1
    60    23    22    2
    61    28    27    2
    62    42    41    2
    63    33    39   am
    64    33    32    1
    65     5     2    1
    66    19    18    1
    67    19    20    2
    68    32    31    1
    69    22    24   am
    70    22    21    1
    71    18    21    1
    72    18    17    1
    73    12    11    2
    74    15    14    1
    75    17    11   am
    76    13    14    1
    77    13    10    1
    78    11    10    1
    79     2     1    1
    80     2     3    1
    81    14    16    1
    82     3     4    2
    83    10     9    1
