@<TRIPOS>MOLECULE
tmp/2n5iA00.pdb
 72 67 0 0 0
SMALL
GASTEIGER

@<TRIPOS>ATOM
      1  N         -4.7280   -7.4160   -2.0110 N.3    35  LEU35      -0.1245
      2  CA        -4.8980   -8.5180   -1.0350 C.3    35  LEU35       0.1561
      3  C         -5.8220   -9.6160   -1.5880 C.2    35  LEU35       0.2260
      4  O         -5.5490  -10.8140   -1.4400 O.2    35  LEU35      -0.2867
      5  CB        -5.4630   -7.9640    0.3120 C.3    35  LEU35       0.0270
      6  CG        -4.5540   -8.1420    1.5630 C.3    35  LEU35       0.0019
      7  CD1       -4.3390   -9.6230    1.9290 C.3    35  LEU35       0.0001
      8  CD2       -3.2120   -7.4310    1.3790 C.3    35  LEU35       0.0001
      9  N          0.8250  -10.9510    0.1540 N.3    41  ASN41      -0.1225
     10  CA         0.6580  -12.0380    1.1360 C.3    41  ASN41       0.1785
     11  C          1.9090  -12.1290    2.0160 C.2    41  ASN41       0.2598
     12  O          2.8450  -12.8660    1.6790 O.2    41  ASN41      -0.2718
     13  CB         0.3670  -13.3930    0.4280 C.3    41  ASN41       0.1169
     14  CG         0.1500  -14.5790    1.3810 C.2    41  ASN41       0.2627
     15  OD1        1.0770  -15.3270    1.7050 O.2    41  ASN41      -0.2716
     16  ND2       -1.0840  -14.7610    1.8310 N.am   41  ASN41      -0.0877
     17  N          1.9240  -11.3000    3.0930 N.am   42  SER42      -0.1938
     18  CA         2.8890  -11.3750    4.2150 C.3    42  SER42       0.2055
     19  C          4.3600  -11.0810    3.8080 C.2    42  SER42       0.2642
     20  O          4.8860   -9.9930    4.1170 O.2    42  SER42      -0.2714
     21  CB         2.7290  -12.7140    4.9790 C.3    42  SER42       0.2130
     22  OG         3.4070  -12.7550    6.2470 O.3    42  SER42      -0.2179
     23  N          5.0040  -12.0350    3.1160 N.am   43  MET43      -0.1976
     24  CA         6.4440  -11.9710    2.7580 C.3    43  MET43       0.1605
     25  C          6.8180  -10.6690    2.0370 C.2    43  MET43       0.2287
     26  O          7.8880  -10.0940    2.2510 O.2    43  MET43      -0.2864
     27  CB         6.8180  -13.1820    1.8720 C.3    43  MET43       0.0413
     28  CG         6.4950  -14.5570    2.4810 C.3    43  MET43       0.0598
     29  SD         7.2490  -14.8190    4.1080 S.3    43  MET43      -0.1393
     30  CE         5.9290  -14.3580    5.2360 C.3    43  MET43       0.0692
     31  N          4.4090   -8.0720    1.9710 N.3    45  ILE45      -0.1231
     32  CA         3.5420   -7.0500    2.6120 C.3    45  ILE45       0.1692
     33  C          4.3340   -6.1100    3.5470 C.2    45  ILE45       0.2591
     34  O          3.9310   -4.9670    3.7790 O.2    45  ILE45      -0.2718
     35  CB         2.3410   -7.7590    3.3790 C.3    45  ILE45       0.0266
     36  CG1        0.9670   -7.1430    2.9860 C.3    45  ILE45       0.0019
     37  CG2        2.5130   -7.7660    4.9270 C.3    45  ILE45       0.0020
     38  CD1       -0.2160   -7.9520    3.4700 C.3    45  ILE45       0.0001
     39  N          5.4680   -6.6100    4.0620 N.am   46  VAL46      -0.1980
     40  CA         6.3600   -5.8510    4.9590 C.3    46  VAL46       0.1595
     41  C          6.9990   -4.6520    4.2160 C.2    46  VAL46       0.2287
     42  O          7.3750   -3.6470    4.8260 O.2    46  VAL46      -0.2864
     43  CB         7.4630   -6.7840    5.5710 C.3    46  VAL46       0.0276
     44  CG1        8.3440   -6.0290    6.5890 C.3    46  VAL46       0.0022
     45  CG2        6.8320   -8.0320    6.2290 C.3    46  VAL46       0.0022
     46  N          5.0270   -1.5360    4.7320 N.3    49  MET49      -0.1245
     47  CA         5.2970   -0.9960    6.0820 C.3    49  MET49       0.1570
     48  C          6.5300   -0.0780    6.0440 C.2    49  MET49       0.2261
     49  O          6.4560    1.0950    6.4130 O.2    49  MET49      -0.2867
     50  CB         5.5420   -2.1390    7.1150 C.3    49  MET49       0.0387
     51  CG         4.4910   -3.2550    7.1390 C.3    49  MET49       0.0595
     52  SD         4.9540   -4.5750    8.2880 S.3    49  MET49      -0.1393
     53  CE         3.7930   -5.8770    7.8810 C.3    49  MET49       0.0692
     54  N         -2.3030   -4.2800   10.7270 N.3    65  ILE65      -0.1231
     55  CA        -2.0070   -5.2490    9.6690 C.3    65  ILE65       0.1692
     56  C         -3.1950   -6.1980    9.5110 C.2    65  ILE65       0.2593
     57  O         -3.3460   -7.1800   10.2530 O.2    65  ILE65      -0.2718
     58  CB        -0.7000   -6.0680    9.9260 C.3    65  ILE65       0.0266
     59  CG1        0.5220   -5.1180   10.1300 C.3    65  ILE65       0.0019
     60  CG2       -0.4550   -7.0620    8.7630 C.3    65  ILE65       0.0020
     61  CD1        0.7790   -4.1400    8.9990 C.3    65  ILE65       0.0001
     62  N         -4.0670   -5.8480    8.5670 N.am   66  THR66      -0.1939
     63  CA        -5.2190   -6.6560    8.2190 C.3    66  THR66       0.2028
     64  C         -5.5760   -6.4200    6.7530 C.2    66  THR66       0.2642
     65  O         -5.3980   -5.3200    6.2200 O.2    66  THR66      -0.2714
     66  CB        -6.4460   -6.3970    9.1540 C.3    66  THR66       0.1808
     67  OG1       -7.6300   -7.0250    8.6140 O.3    66  THR66      -0.2208
     68  CG2       -6.6980   -4.8940    9.3790 C.3    66  THR66       0.0379
     69  N         -6.0850   -7.4810    6.1200 N.am   67  GLY67      -0.1954
     70  CA        -6.4400   -7.4640    4.7150 C.3    67  GLY67       0.1869
     71  C         -7.4980   -6.4320    4.3490 C.2    67  GLY67       0.2309
     72  O         -7.5770   -6.0430    3.1930 O.2    67  GLY67      -0.2863
@<TRIPOS>BOND
     1     1     2    1
     2     3     4    2
     3     3     2    1
     4     2     5    1
     5     9    10    1
     6     5     6    1
     7    13    10    1
     8    13    14    1
     9    10    11    1
    10     8     6    1
    11    14    15    2
    12    14    16   am
    13     6     7    1
    14    12    11    2
    15    27    28    1
    16    27    24    1
    17    31    32    1
    18    11    17   am
    19    25    26    2
    20    25    24    1
    21    28    29    1
    22    32    35    1
    23    32    33    1
    24    24    23    1
    25    36    35    1
    26    36    38    1
    27    17    18    1
    28    23    19   am
    29    72    71    2
    30    35    37    1
    31    33    34    2
    32    33    39   am
    33    19    20    2
    34    19    18    1
    35    39    40    1
    36    29    30    1
    37    18    21    1
    38    41    42    2
    39    41    40    1
    40    71    70    1
    41    70    69    1
    42    46    47    1
    43    40    43    1
    44    21    22    1
    45    43    45    1
    46    43    44    1
    47    48    47    1
    48    48    49    2
    49    47    50    1
    50    69    64   am
    51    65    64    2
    52    64    63    1
    53    50    51    1
    54    51    52    1
    55    53    52    1
    56    63    62    1
    57    63    66    1
    58    62    56   am
    59    67    66    1
    60    60    58    1
    61    61    59    1
    62    66    68    1
    63    56    55    1
    64    56    57    2
    65    55    58    1
    66    55    54    1
    67    58    59    1
