@<TRIPOS>MOLECULE
tmp/2n91A00.pdb
 141 137 0 0 0
SMALL
GASTEIGER

@<TRIPOS>ATOM
      1  N         -1.0220    8.8280   -4.0710 N.3     4  ILE4       -0.1245
      2  CA        -1.8440    7.9540   -4.8920 C.3     4  ILE4        0.1561
      3  C         -3.0820    7.5320   -4.0980 C.2     4  ILE4        0.2260
      4  O         -2.9720    7.1100   -2.9480 O.2     4  ILE4       -0.2867
      5  CB        -1.0170    6.7780   -5.4150 C.3     4  ILE4        0.0252
      6  CG1        0.0690    7.2570   -6.3790 C.3     4  ILE4        0.0019
      7  CG2       -1.9170    5.7140   -6.0470 C.3     4  ILE4        0.0019
      8  CD1        0.6010    6.0980   -7.2260 C.3     4  ILE4        0.0001
      9  N         -6.6010    5.1580   -4.0740 N.3     6  PHE6       -0.1241
     10  CA        -7.2130    3.9680   -4.6410 C.3     6  PHE6        0.1605
     11  C         -8.6940    3.8830   -4.2660 C.2     6  PHE6        0.2264
     12  O         -9.0340    3.5220   -3.1410 O.2     6  PHE6       -0.2867
     13  CB        -6.4800    2.7630   -4.0490 C.3     6  PHE6        0.0534
     14  CG        -5.0380    2.6100   -4.5380 C.ar    6  PHE6       -0.0203
     15  CD1       -4.7800    1.9490   -5.6980 C.ar    6  PHE6       -0.0042
     16  CD2       -4.0150    3.1350   -3.8120 C.ar    6  PHE6       -0.0042
     17  CE1       -3.4410    1.8080   -6.1520 C.ar    6  PHE6       -0.0003
     18  CE2       -2.6770    2.9940   -4.2660 C.ar    6  PHE6       -0.0003
     19  CZ        -2.4180    2.3330   -5.4260 C.ar    6  PHE6       -0.0000
     20  N         -2.1100    6.0080   -0.0830 N.3    15  PHE15      -0.1241
     21  CA        -0.8470    5.2930   -0.0190 C.3    15  PHE15       0.1605
     22  C          0.3120    6.1850   -0.4690 C.2    15  PHE15       0.2264
     23  O          0.4740    6.5000   -1.6460 O.2    15  PHE15      -0.2867
     24  CB        -0.9590    4.1020   -0.9730 C.3    15  PHE15       0.0534
     25  CG         0.2470    3.1600   -0.9350 C.ar   15  PHE15      -0.0203
     26  CD1        0.9840    3.0440    0.2020 C.ar   15  PHE15      -0.0042
     27  CD2        0.5800    2.4380   -2.0390 C.ar   15  PHE15      -0.0042
     28  CE1        2.1030    2.1700    0.2360 C.ar   15  PHE15      -0.0003
     29  CE2        1.6990    1.5640   -2.0040 C.ar   15  PHE15      -0.0003
     30  CZ         2.4360    1.4490   -0.8670 C.ar   15  PHE15      -0.0000
     31  N          3.2560    6.9940   -1.8660 N.3    17  HIS17      -0.1241
     32  CA         4.1780    6.3610   -2.7940 C.3    17  HIS17       0.1621
     33  C          5.5770    6.9530   -2.6120 C.2    17  HIS17       0.2264
     34  O          6.5280    6.2290   -2.3230 O.2    17  HIS17      -0.2867
     35  CB         3.6670    6.4780   -4.2320 C.3    17  HIS17       0.0745
     36  CG         4.4000    5.5990   -5.2170 C.ar   17  HIS17       0.0817
     37  ND1        5.3030    6.0980   -6.1400 N.ar   17  HIS17      -0.2268
     38  CD2        4.3540    4.2500   -5.4130 C.ar   17  HIS17       0.1154
     39  CE1        5.7720    5.0850   -6.8540 C.ar   17  HIS17       0.1986
     40  NE2        5.1830    3.9410   -6.4030 N.ar   17  HIS17      -0.2212
     41  N          6.7990    6.1870    0.7850 N.3    20  HIS20      -0.1226
     42  CA         7.2360    4.8040    0.8700 C.3    20  HIS20       0.1752
     43  C          8.5100    4.6170    0.0430 C.2    20  HIS20       0.2595
     44  O          9.1930    3.6020    0.1700 O.2    20  HIS20      -0.2718
     45  CB         6.1130    3.8530    0.4520 C.3    20  HIS20       0.0759
     46  CG         5.1770    3.4760    1.5760 C.ar   20  HIS20       0.0818
     47  ND1        4.1850    4.3220    2.0400 N.ar   20  HIS20      -0.2268
     48  CD2        5.0930    2.3380    2.3220 C.ar   20  HIS20       0.1154
     49  CE1        3.5390    3.7100    3.0220 C.ar   20  HIS20       0.1986
     50  NE2        4.1040    2.4800    3.1950 N.ar   20  HIS20      -0.2212
     51  N          8.7910    5.6110   -0.7860 N.am   21  GLN21      -0.1979
     52  CA         9.9700    5.5690   -1.6330 C.3    21  GLN21       0.1601
     53  C         11.1970    6.0600   -0.8610 C.2    21  GLN21       0.2287
     54  O         12.3290    5.8770   -1.3050 O.2    21  GLN21      -0.2864
     55  CB         9.7600    6.3890   -2.9070 C.3    21  GLN21       0.0394
     56  CG         8.6860    5.7580   -3.7950 C.3    21  GLN21       0.0908
     57  CD         9.3130    5.0600   -5.0040 C.2    21  GLN21       0.2608
     58  OE1       10.3280    4.3910   -4.9090 O.2    21  GLN21      -0.2717
     59  NE2        8.6540    5.2540   -6.1420 N.am   21  GLN21      -0.0878
     60  N         11.2030    2.8560    2.2540 N.3    24  VAL24      -0.1245
     61  CA        11.6690    1.5810    1.7370 C.3    24  VAL24       0.1561
     62  C         12.6280    1.8270    0.5710 C.2    24  VAL24       0.2260
     63  O         12.4180    2.6940   -0.2740 O.2    24  VAL24      -0.2867
     64  CB        10.4740    0.7040    1.3540 C.3    24  VAL24       0.0252
     65  CG1       10.9390   -0.6200    0.7440 C.3    24  VAL24       0.0019
     66  CG2        9.5620    0.4630    2.5590 C.3    24  VAL24       0.0019
     67  N         14.7460   -0.9460   -1.7820 N.3    26  ASP26      -0.1225
     68  CA        14.3890   -1.7880   -2.9110 C.3    26  ASP26       0.1805
     69  C         12.8920   -1.6450   -3.1950 C.2    26  ASP26       0.2598
     70  O         12.0710   -1.7580   -2.2870 O.2    26  ASP26      -0.2718
     71  CB        14.6740   -3.2610   -2.6110 C.3    26  ASP26       0.1424
     72  CG        14.1620   -4.2470   -3.6630 C.2    26  ASP26       0.3668
     73  OD1       13.5060   -5.2470   -3.3360 O.co2  26  ASP26      -0.2456
     74  OD2       14.4650   -3.9500   -4.8810 O.co2  26  ASP26      -0.2456
     75  N         12.5840   -1.3980   -4.4600 N.am   27  CYS27      -0.1970
     76  CA        11.2010   -1.2380   -4.8760 C.3    27  CYS27       0.1712
     77  C         10.6700   -2.6040   -5.3140 C.2    27  CYS27       0.2296
     78  O          9.4600   -2.8240   -5.3430 O.2    27  CYS27      -0.2864
     79  CB        11.0610   -0.1890   -5.9810 C.3    27  CYS27       0.0983
     80  SG        11.5950    1.4970   -5.5120 S.3    27  CYS27      -0.0798
     81  N          7.8330   -4.1030   -3.9480 N.3    30  CYS30      -0.1221
     82  CA         6.4960   -3.7160   -4.3650 C.3    30  CYS30       0.1808
     83  C          6.3780   -3.9460   -5.8730 C.2    30  CYS30       0.2601
     84  O          5.3290   -4.3650   -6.3600 O.2    30  CYS30      -0.2717
     85  CB         6.1820   -2.2680   -3.9830 C.3    30  CYS30       0.0970
     86  SG         5.9550   -2.1340   -2.1720 S.3    30  CYS30      -0.0800
     87  N          7.4690   -3.6630   -6.5700 N.am   31  HIS31      -0.1975
     88  CA         7.5000   -3.8340   -8.0130 C.3    31  HIS31       0.1656
     89  C          8.4340   -4.9920   -8.3720 C.2    31  HIS31       0.2291
     90  O          9.5390   -4.7720   -8.8670 O.2    31  HIS31      -0.2864
     91  CB         7.8840   -2.5260   -8.7070 C.3    31  HIS31       0.0771
     92  CG         6.9180   -1.3930   -8.4570 C.ar   31  HIS31       0.0820
     93  ND1        5.6000   -1.4240   -8.8800 N.ar   31  HIS31      -0.2267
     94  CD2        7.0910   -0.1970   -7.8250 C.ar   31  HIS31       0.1154
     95  CE1        5.0160   -0.2920   -8.5130 C.ar   31  HIS31       0.1986
     96  NE2        5.9420    0.4670   -7.8600 N.ar   31  HIS31      -0.2212
     97  N          9.0540   -1.5380  -11.7960 N.3    35  PRO35      -0.2102
     98  CA         8.2080   -0.4110  -11.4680 C.3    35  PRO35       0.1504
     99  C          7.0390   -0.3500  -12.4400 C.2    35  PRO35       0.2576
    100  O          7.2490   -0.5490  -13.6350 O.2    35  PRO35      -0.2718
    101  CB         9.1100    0.8120  -11.6190 C.3    35  PRO35       0.0282
    102  CG        10.4680    0.3020  -11.3720 C.3    35  PRO35       0.0208
    103  CD        10.4510   -1.1620  -11.8040 C.3    35  PRO35       0.0893
    104  N          5.8490   -0.0830  -11.9220 N.am   36  GLY36      -0.1943
    105  CA         4.6670   -0.0040  -12.7640 C.3    36  GLY36       0.2014
    106  C          3.4220   -0.4680  -12.0050 C.2    36  GLY36       0.2639
    107  O          3.3950   -0.4450  -10.7750 O.2    36  GLY36      -0.2714
    108  N          2.4200   -0.8770  -12.7690 N.am   37  LYS37      -0.1963
    109  CA         1.1750   -1.3450  -12.1840 C.3    37  LYS37       0.1728
    110  C          1.3620   -2.7740  -11.6720 C.2    37  LYS37       0.2616
    111  O          2.2600   -3.4860  -12.1210 O.2    37  LYS37      -0.2715
    112  CB         0.0250   -1.1950  -13.1820 C.3    37  LYS37       0.0311
    113  CG        -0.2120   -2.5000  -13.9460 C.3    37  LYS37       0.0038
    114  CD         0.9720   -2.8220  -14.8610 C.3    37  LYS37       0.0206
    115  CE         0.5840   -3.8620  -15.9130 C.3    37  LYS37       0.1093
    116  NZ         1.4300   -3.7200  -17.1190 N.3    37  LYS37      -0.1314
    117  N          0.5010   -3.1520  -10.7390 N.am   38  ILE38      -0.1977
    118  CA         0.5610   -4.4840  -10.1610 C.3    38  ILE38       0.1596
    119  C         -0.7110   -5.2510  -10.5270 C.2    38  ILE38       0.2287
    120  O         -1.6980   -5.2120   -9.7920 O.2    38  ILE38      -0.2864
    121  CB         0.8180   -4.4030   -8.6550 C.3    38  ILE38       0.0276
    122  CG1        2.0990   -3.6200   -8.3590 C.3    38  ILE38       0.0022
    123  CG2        0.8410   -5.7980   -8.0270 C.3    38  ILE38       0.0022
    124  CD1        2.0950   -3.0830   -6.9260 C.3    38  ILE38       0.0001
    125  N         -3.1770   -6.8980   -7.8380 N.3    41  PHE41      -0.1241
    126  CA        -3.2740   -6.2180   -6.5570 C.3    41  PHE41       0.1605
    127  C         -4.7130   -6.2310   -6.0360 C.2    41  PHE41       0.2264
    128  O         -5.6370   -6.5870   -6.7660 O.2    41  PHE41      -0.2867
    129  CB        -2.8410   -4.7690   -6.7870 C.3    41  PHE41       0.0534
    130  CG        -2.9350   -3.8860   -5.5400 C.ar   41  PHE41      -0.0203
    131  CD1       -1.9920   -3.9840   -4.5650 C.ar   41  PHE41      -0.0042
    132  CD2       -3.9610   -3.0040   -5.4080 C.ar   41  PHE41      -0.0042
    133  CE1       -2.0800   -3.1650   -3.4080 C.ar   41  PHE41      -0.0003
    134  CE2       -4.0490   -2.1850   -4.2510 C.ar   41  PHE41      -0.0003
    135  CZ        -3.1070   -2.2830   -3.2760 C.ar   41  PHE41      -0.0000
    136  N          0.6500   -5.0190    2.2540 N.3    51  CYS51      -0.1235
    137  CA         0.8360   -3.7490    2.9350 C.3    51  CYS51       0.1677
    138  C          0.8420   -4.0090    4.4430 C.2    51  CYS51       0.2270
    139  O          1.7500   -3.5710    5.1480 O.2    51  CYS51      -0.2867
    140  CB        -0.2330   -2.7300    2.5360 C.3    51  CYS51       0.0956
    141  SG        -0.5070   -2.5720    0.7330 S.3    51  CYS51      -0.0801
@<TRIPOS>BOND
     1   116   115    1
     2   115   114    1
     3   114   113    1
     4   113   112    1
     5   100    99    2
     6   112   109    1
     7   108   109    1
     8   108   106   am
     9   105   106    1
    10   105   104    1
    11    99   104   am
    12    99    98    1
    13   109   110    1
    14   111   110    2
    15   106   107    2
    16   103    97    1
    17   103   102    1
    18    97    98    1
    19   110   117   am
    20   101    98    1
    21   101   102    1
    22   117   118    1
    23   119   118    1
    24   119   120    2
    25   118   121    1
    26    93    95   ar
    27    93    92   ar
    28    90    89    2
    29    91    92    1
    30    91    88    1
    31   121   122    1
    32   121   123    1
    33    95    96   ar
    34    92    94   ar
    35    89    88    1
    36   122   124    1
    37    88    87    1
    38    96    94   ar
    39   125   126    1
    40     8     6    1
    41    39    40   ar
    42    39    37   ar
    43   129   126    1
    44   129   130    1
    45   128   127    2
    46    87    83   am
    47   126   127    1
    48    40    38   ar
    49     6     5    1
    50    84    83    2
    51    17    15   ar
    52    17    19   ar
    53    59    57   am
    54    37    36   ar
    55     7     5    1
    56    79    80    1
    57    79    76    1
    58    83    82    1
    59    15    14   ar
    60   130   132   ar
    61   130   131   ar
    62    19    18   ar
    63     5     2    1
    64    38    36   ar
    65   132   134   ar
    66    78    77    2
    67    77    76    1
    68    36    35    1
    69    57    58    2
    70    57    56    1
    71     2     3    1
    72     2     1    1
    73    74    72   ar
    74    76    75    1
    75    10    11    1
    76    10     9    1
    77    10    13    1
    78   131   133   ar
    79    14    13    1
    80    14    16   ar
    81    75    69   am
    82    82    85    1
    83    82    81    1
    84    11    12    2
    85    18    16   ar
    86   134   135   ar
    87    35    32    1
    88     3     4    2
    89    85    86    1
    90    56    55    1
    91    72    73   ar
    92    72    71    1
    93   133   135   ar
    94    69    68    1
    95    69    70    2
    96    68    71    1
    97    68    67    1
    98    55    52    1
    99    32    33    1
   100    32    31    1
   101    33    34    2
   102    27    29   ar
   103    27    25   ar
   104    29    30   ar
   105    23    22    2
   106    52    53    1
   107    52    51    1
   108    54    53    2
   109    24    25    1
   110    24    21    1
   111    25    26   ar
   112    30    28   ar
   113    51    43   am
   114    22    21    1
   115    63    62    2
   116    20    21    1
   117    43    44    2
   118    43    42    1
   119    26    28   ar
   120    45    42    1
   121    45    46    1
   122    62    61    1
   123   141   140    1
   124    65    64    1
   125    41    42    1
   126    64    61    1
   127    64    66    1
   128    46    47   ar
   129    46    48   ar
   130    61    60    1
   131    47    49   ar
   132   136   137    1
   133    48    50   ar
   134   140   137    1
   135   137   138    1
   136    49    50   ar
   137   138   139    2
