@<TRIPOS>MOLECULE
tmp/2napA02.pdb
 71 65 0 0 0
SMALL
GASTEIGER

@<TRIPOS>ATOM
      1  N         68.9660    7.9430    0.8920 N.3   135  ARG135     -0.1245
      2  CA        69.7810    6.9000    0.2900 C.3   135  ARG135      0.1563
      3  C         70.6390    7.5350   -0.7920 C.2   135  ARG135      0.2260
      4  O         71.7070    7.0150   -1.1510 O.2   135  ARG135     -0.2867
      5  CB        68.8820    5.8480   -0.3380 C.3   135  ARG135      0.0307
      6  CG        69.5780    4.8670   -1.2430 C.3   135  ARG135      0.0489
      7  CD        69.2140    3.4730   -0.8400 C.3   135  ARG135      0.2205
      8  NE        70.0360    3.0000    0.2520 N.pl3 135  ARG135     -0.0865
      9  CZ        69.6530    2.1400    1.1860 C.cat 135  ARG135      0.5346
     10  NH1       68.4330    1.6520    1.2170 N.pl3 135  ARG135      0.1354
     11  NH2       70.5610    1.6400    1.9960 N.pl3 135  ARG135      0.1354
     12  N         73.5430    7.6170    3.0570 N.3   139  ALA139     -0.1245
     13  CA        73.7180    6.1620    3.1780 C.3   139  ALA139      0.1562
     14  C         75.1910    5.8030    3.4340 C.2   139  ALA139      0.2260
     15  O         75.4980    5.0440    4.3550 O.2   139  ALA139     -0.2867
     16  CB        73.1910    5.4780    1.9270 C.3   139  ALA139      0.0290
     17  N         76.2380    6.5130    6.9630 N.3   142  VAL142     -0.1231
     18  CA        75.7080    5.5250    7.9050 C.3   142  VAL142      0.1692
     19  C         76.6590    4.3140    7.8600 C.2   142  VAL142      0.2592
     20  O         77.1110    3.8300    8.9020 O.2   142  VAL142     -0.2718
     21  CB        74.2830    5.0680    7.5240 C.3   142  VAL142      0.0266
     22  CG1       73.8110    4.0280    8.5230 C.3   142  VAL142      0.0020
     23  CG2       73.3200    6.2490    7.5210 C.3   142  VAL142      0.0020
     24  N         76.9800    3.8800    6.6420 N.am  143  GLY143     -0.1957
     25  CA        77.8880    2.7640    6.4440 C.3   143  GLY143      0.1869
     26  C         79.2050    3.0310    7.1370 C.2   143  GLY143      0.2309
     27  O         79.6600    2.2130    7.9430 O.2   143  GLY143     -0.2863
     28  N         78.8120    2.9030   10.9810 N.3   146  VAL146     -0.1231
     29  CA        78.5170    1.5650   11.5110 C.3   146  VAL146      0.1692
     30  C         79.7280    0.6490   11.3730 C.2   146  VAL146      0.2592
     31  O         80.0660   -0.0450   12.3200 O.2   146  VAL146     -0.2718
     32  CB        77.2530    0.9350   10.8610 C.3   146  VAL146      0.0266
     33  CG1       77.1110   -0.4850   11.3220 C.3   146  VAL146      0.0020
     34  CG2       76.0090    1.7100   11.2930 C.3   146  VAL146      0.0020
     35  N         80.4060    0.6920   10.2310 N.am  147  THR147     -0.1953
     36  CA        81.5890   -0.1420   10.0830 C.3   147  THR147      0.1897
     37  C         82.7570    0.3250   10.9750 C.2   147  THR147      0.2313
     38  O         83.4740   -0.5130   11.5340 O.2   147  THR147     -0.2863
     39  CB        82.0400   -0.3000    8.6120 C.3   147  THR147      0.1794
     40  OG1       82.3000    0.9790    8.0230 O.3   147  THR147     -0.2208
     41  CG2       80.9590   -1.0230    7.7850 C.3   147  THR147      0.0378
     42  N         81.3610    4.6450    1.3640 N.3   314  VAL314     -0.1245
     43  CA        81.5500    4.1150    2.7170 C.3   314  VAL314      0.1561
     44  C         83.0520    4.0870    3.0810 C.2   314  VAL314      0.2260
     45  O         83.4430    4.4240    4.2110 O.2   314  VAL314     -0.2867
     46  CB        80.9120    2.6750    2.8780 C.3   314  VAL314      0.0252
     47  CG1       81.2260    2.0860    4.2710 C.3   314  VAL314      0.0019
     48  CG2       79.3810    2.7540    2.7100 C.3   314  VAL314      0.0019
     49  N         66.4810   -1.7250    4.7390 N.3   358  HIS358     -0.1241
     50  CA        67.1810   -2.7860    5.4420 C.3   358  HIS358      0.1621
     51  C         67.1890   -2.5570    6.9140 C.2   358  HIS358      0.2264
     52  O         67.7740   -3.3490    7.6810 O.2   358  HIS358     -0.2867
     53  CB        68.6280   -2.8860    4.9240 C.3   358  HIS358      0.0745
     54  CG        69.4380   -1.6370    5.1300 C.ar  358  HIS358      0.0817
     55  ND1       69.3070   -0.5210    4.3270 N.ar  358  HIS358     -0.2268
     56  CD2       70.3530   -1.3130    6.0760 C.ar  358  HIS358      0.1154
     57  CE1       70.0990    0.4360    4.7780 C.ar  358  HIS358      0.1986
     58  NE2       70.7440   -0.0200    5.8370 N.ar  358  HIS358     -0.2212
     59  N         77.7640   -1.1570   -0.9700 N.3   704  VAL704     -0.1231
     60  CA        77.3320   -1.3840    0.3980 C.3   704  VAL704      0.1692
     61  C         76.2210   -0.4290    0.8880 C.2   704  VAL704      0.2592
     62  O         75.2300   -0.8770    1.4780 O.2   704  VAL704     -0.2718
     63  CB        78.5280   -1.3210    1.3440 C.3   704  VAL704      0.0266
     64  CG1       78.0900   -1.4900    2.8050 C.3   704  VAL704      0.0020
     65  CG2       79.5290   -2.3880    0.9440 C.3   704  VAL704      0.0020
     66  N         76.3850    0.8760    0.6590 N.am  705  SER705     -0.1952
     67  CA        75.4010    1.8640    1.1190 C.3   705  SER705      0.1924
     68  C         74.3180    2.0770    0.0670 C.2   705  SER705      0.2314
     69  O         73.2340    2.5740    0.3630 O.2   705  SER705     -0.2863
     70  CB        76.1050    3.1980    1.3840 C.3   705  SER705      0.2116
     71  OG        76.6270    3.7050    0.1560 O.3   705  SER705     -0.2180
@<TRIPOS>BOND
     1     6     7    1
     2     6     5    1
     3     4     3    2
     4    59    60    1
     5     7     8    1
     6     3     2    1
     7     5     2    1
     8    68    69    2
     9    68    67    1
    10    71    70    1
    11     8     9    2
    12     2     1    1
    13    60    61    1
    14    60    63    1
    15    66    61   am
    16    66    67    1
    17    61    62    2
    18    65    63    1
    19    67    70    1
    20     9    10    1
    21     9    11    1
    22    63    64    1
    23    42    43    1
    24    16    13    1
    25    48    46    1
    26    43    46    1
    27    43    44    1
    28    46    47    1
    29    12    13    1
    30    44    45    2
    31    13    14    1
    32    14    15    2
    33    55    57   ar
    34    55    54   ar
    35    49    50    1
    36    57    58   ar
    37    53    54    1
    38    53    50    1
    39    54    56   ar
    40    50    51    1
    41    58    56   ar
    42    25    24    1
    43    25    26    1
    44    24    19   am
    45    51    52    2
    46    17    18    1
    47    26    27    2
    48    23    21    1
    49    21    18    1
    50    21    22    1
    51    41    39    1
    52    19    18    1
    53    19    20    2
    54    40    39    1
    55    39    36    1
    56    36    35    1
    57    36    37    1
    58    35    30   am
    59    32    34    1
    60    32    33    1
    61    32    29    1
    62    37    38    2
    63    28    29    1
    64    30    29    1
    65    30    31    2
