@<TRIPOS>MOLECULE
tmp/2nbnA01.pdb
 171 156 0 0 0
SMALL
GASTEIGER

@<TRIPOS>ATOM
      1  N          1.4490   -5.0500   -4.9980 N.3     6  ILE6       -0.1245
      2  CA         2.0000   -5.4870   -6.2750 C.3     6  ILE6        0.1561
      3  C          1.2980   -6.7440   -6.7750 C.2     6  ILE6        0.2260
      4  O          0.8600   -6.8070   -7.9250 O.2     6  ILE6       -0.2867
      5  CB         3.5110   -5.7640   -6.1700 C.3     6  ILE6        0.0252
      6  CG1        4.1870   -4.7030   -5.2990 C.3     6  ILE6        0.0019
      7  CG2        4.1410   -5.7990   -7.5550 C.3     6  ILE6        0.0019
      8  CD1        3.8470   -3.2850   -5.7000 C.3     6  ILE6        0.0001
      9  N         -2.5360   -6.6850   -7.8120 N.3     9  ARG9       -0.1231
     10  CA        -2.8480   -6.3130   -9.1860 C.3     9  ARG9        0.1694
     11  C         -2.7780   -7.5270  -10.1070 C.2     9  ARG9        0.2591
     12  O         -3.5190   -7.6190  -11.0870 O.2     9  ARG9       -0.2718
     13  CB        -1.8840   -5.2310   -9.6760 C.3     9  ARG9        0.0321
     14  CG        -2.4230   -3.8180   -9.5190 C.3     9  ARG9        0.0489
     15  CD        -1.6630   -3.0480   -8.4510 C.3     9  ARG9        0.2205
     16  NE        -1.8640   -1.6060   -8.5680 N.pl3   9  ARG9       -0.0865
     17  CZ        -2.9430   -0.9750   -8.1190 C.cat   9  ARG9        0.5346
     18  NH1       -3.9130   -1.6550   -7.5240 N.pl3   9  ARG9        0.1354
     19  NH2       -3.0520    0.3390   -8.2630 N.pl3   9  ARG9        0.1354
     20  N         -1.8840   -8.4550   -9.7870 N.am   10  ILE10      -0.1980
     21  CA        -1.7180   -9.6640  -10.5850 C.3    10  ILE10       0.1595
     22  C         -2.8740  -10.6320  -10.3630 C.2    10  ILE10       0.2287
     23  O         -3.5570  -11.0280  -11.3070 O.2    10  ILE10      -0.2864
     24  CB        -0.3930  -10.3780  -10.2560 C.3    10  ILE10       0.0276
     25  CG1        0.7930   -9.4490  -10.5240 C.3    10  ILE10       0.0022
     26  CG2       -0.2650  -11.6570  -11.0700 C.3    10  ILE10       0.0022
     27  CD1        2.0560   -9.8590   -9.8000 C.3    10  ILE10       0.0001
     28  N         -5.6730   -9.5610  -12.2400 N.3    13  ARG13      -0.1245
     29  CA        -5.5090   -9.6560  -13.6860 C.3    13  ARG13       0.1563
     30  C         -5.6100  -11.1070  -14.1500 C.2    13  ARG13       0.2260
     31  O         -6.3610  -11.4230  -15.0720 O.2    13  ARG13      -0.2867
     32  CB        -4.1610   -9.0690  -14.1070 C.3    13  ARG13       0.0307
     33  CG        -3.9540   -9.0350  -15.6130 C.3    13  ARG13       0.0489
     34  CD        -5.0440   -8.2320  -16.3060 C.3    13  ARG13       0.2205
     35  NE        -4.4950   -7.3000  -17.2880 N.pl3  13  ARG13      -0.0865
     36  CZ        -4.1230   -7.6570  -18.5120 C.cat  13  ARG13       0.5346
     37  NH1       -4.2390   -8.9180  -18.9030 N.pl3  13  ARG13       0.1354
     38  NH2       -3.6330   -6.7500  -19.3480 N.pl3  13  ARG13       0.1354
     39  N          8.0940  -15.8900   -8.7470 N.3    31  LEU31      -0.1245
     40  CA         8.4590  -14.5090   -8.4470 C.3    31  LEU31       0.1561
     41  C          9.0830  -14.4000   -7.0590 C.2    31  LEU31       0.2260
     42  O          8.5300  -14.8970   -6.0780 O.2    31  LEU31      -0.2867
     43  CB         7.2280  -13.6050   -8.5370 C.3    31  LEU31       0.0270
     44  CG         7.2510  -12.3510   -7.6620 C.3    31  LEU31       0.0019
     45  CD1        8.4590  -11.4890   -7.9960 C.3    31  LEU31       0.0001
     46  CD2        5.9640  -11.5580   -7.8330 C.3    31  LEU31       0.0001
     47  N         11.8000  -16.0970  -11.6180 N.3    63  VAL63      -0.1245
     48  CA        11.9760  -14.6550  -11.7460 C.3    63  VAL63       0.1561
     49  C         12.5320  -14.0530  -10.4600 C.2    63  VAL63       0.2260
     50  O         12.0360  -14.3290   -9.3670 O.2    63  VAL63      -0.2867
     51  CB        10.6490  -13.9560  -12.0950 C.3    63  VAL63       0.0252
     52  CG1       10.8720  -12.4670  -12.3170 C.3    63  VAL63       0.0019
     53  CG2       10.0160  -14.5970  -13.3210 C.3    63  VAL63       0.0019
     54  N         13.2990  -10.4370   -8.7630 N.3    65  VAL65      -0.1245
     55  CA        13.1630   -8.9860   -8.7830 C.3    65  VAL65       0.1561
     56  C         13.1770   -8.4140   -7.3700 C.2    65  VAL65       0.2260
     57  O         12.7300   -9.0590   -6.4230 O.2    65  VAL65      -0.2867
     58  CB        11.8620   -8.5540   -9.4860 C.3    65  VAL65       0.0252
     59  CG1       10.6490   -9.0960   -8.7460 C.3    65  VAL65       0.0019
     60  CG2       11.7960   -7.0380   -9.5980 C.3    65  VAL65       0.0019
     61  N         10.0270   -3.9530   -8.2490 N.3    70  MET70      -0.1245
     62  CA         8.6240   -4.2990   -8.4450 C.3    70  MET70       0.1570
     63  C          7.7330   -3.0720   -8.2840 C.2    70  MET70       0.2261
     64  O          6.9230   -2.7610   -9.1580 O.2    70  MET70      -0.2867
     65  CB         8.2020   -5.3850   -7.4540 C.3    70  MET70       0.0387
     66  CG         8.3790   -6.7970   -7.9870 C.3    70  MET70       0.0595
     67  SD         6.9710   -7.8610   -7.6180 S.3    70  MET70      -0.1393
     68  CE         6.6930   -8.6210   -9.2160 C.3    70  MET70       0.0692
     69  N          7.4400   -0.8980  -11.2750 N.3    73  ILE73      -0.1231
     70  CA         6.5610   -1.3630  -12.3410 C.3    73  ILE73       0.1692
     71  C          5.0980   -1.2880  -11.9190 C.2    73  ILE73       0.2592
     72  O          4.3040   -0.5640  -12.5200 O.2    73  ILE73      -0.2718
     73  CB         6.8920   -2.8100  -12.7530 C.3    73  ILE73       0.0266
     74  CG1        8.4060   -2.9970  -12.8670 C.3    73  ILE73       0.0019
     75  CG2        6.2100   -3.1550  -14.0680 C.3    73  ILE73       0.0020
     76  CD1        8.8100   -4.3630  -13.3760 C.3    73  ILE73       0.0001
     77  N          4.7480   -2.0400  -10.8810 N.am   74  SER74      -0.1952
     78  CA         3.3790   -2.0610  -10.3790 C.3    74  SER74       0.1924
     79  C          2.9060   -0.6530  -10.0330 C.2    74  SER74       0.2314
     80  O          1.7090   -0.3680  -10.0430 O.2    74  SER74      -0.2863
     81  CB         3.2790   -2.9620   -9.1460 C.3    74  SER74       0.2116
     82  OG         2.5120   -2.3470   -8.1260 O.3    74  SER74      -0.2180
     83  N          8.6760   -2.6260  -17.3100 N.3    80  VAL80      -0.1245
     84  CA         9.5370   -3.8010  -17.2510 C.3    80  VAL80       0.1561
     85  C         10.6970   -3.6830  -18.2340 C.2    80  VAL80       0.2260
     86  O         11.8130   -4.1130  -17.9470 O.2    80  VAL80      -0.2867
     87  CB         8.7490   -5.0890  -17.5570 C.3    80  VAL80       0.0252
     88  CG1        9.6680   -6.3010  -17.5120 C.3    80  VAL80       0.0019
     89  CG2        7.5930   -5.2500  -16.5820 C.3    80  VAL80       0.0019
     90  N         14.4570   -4.2840  -17.3450 N.3    84  LEU84      -0.1245
     91  CA        15.0220   -5.4290  -18.0510 C.3    84  LEU84       0.1561
     92  C         16.4740   -5.1690  -18.4370 C.2    84  LEU84       0.2260
     93  O         17.3590   -5.9740  -18.1470 O.2    84  LEU84      -0.2867
     94  CB        14.1970   -5.7390  -19.3010 C.3    84  LEU84       0.0270
     95  CG        13.6350   -7.1570  -19.4000 C.3    84  LEU84       0.0019
     96  CD1       14.7570   -8.1640  -19.5940 C.3    84  LEU84       0.0001
     97  CD2       12.8200   -7.4950  -18.1600 C.3    84  LEU84       0.0001
     98  N         15.5280   -7.5810  -13.2430 N.3    89  ILE89      -0.1245
     99  CA        14.8990   -8.8960  -13.2260 C.3    89  ILE89       0.1561
    100  C         15.8490   -9.9670  -13.7510 C.2    89  ILE89       0.2260
    101  O         16.4010   -9.8390  -14.8430 O.2    89  ILE89      -0.2867
    102  CB        13.6090   -8.9130  -14.0680 C.3    89  ILE89       0.0252
    103  CG1       12.7610   -7.6760  -13.7670 C.3    89  ILE89       0.0019
    104  CG2       12.8170  -10.1830  -13.7960 C.3    89  ILE89       0.0019
    105  CD1       11.6160   -7.4780  -14.7350 C.3    89  ILE89       0.0001
    106  N         16.8110  -13.9010  -14.9920 N.3    91  LEU91      -0.1245
    107  CA        16.1850  -14.9760  -15.7540 C.3    91  LEU91       0.1561
    108  C         16.7890  -16.3280  -15.3860 C.2    91  LEU91       0.2260
    109  O         17.9980  -16.5300  -15.5000 O.2    91  LEU91      -0.2867
    110  CB        16.3450  -14.7250  -17.2540 C.3    91  LEU91       0.0270
    111  CG        15.9170  -13.3440  -17.7520 C.3    91  LEU91       0.0019
    112  CD1       16.2090  -13.1980  -19.2380 C.3    91  LEU91       0.0001
    113  CD2       14.4400  -13.1100  -17.4720 C.3    91  LEU91       0.0001
    114  N          9.2390  -16.2240  -19.4390 N.3    98  ALA98      -0.1231
    115  CA         9.2090  -14.9910  -18.6620 C.3    98  ALA98       0.1694
    116  C          9.0500  -13.7750  -19.5680 C.2    98  ALA98       0.2591
    117  O          8.1760  -12.9370  -19.3500 O.2    98  ALA98      -0.2718
    118  CB        10.4720  -14.8650  -17.8220 C.3    98  ALA98       0.0304
    119  N          9.9020  -13.6850  -20.5840 N.am   99  ALA99      -0.1980
    120  CA         9.8550  -12.5720  -21.5240 C.3    99  ALA99       0.1597
    121  C          8.4570  -12.4080  -22.1110 C.2    99  ALA99       0.2287
    122  O          7.9330  -11.2960  -22.1930 O.2    99  ALA99      -0.2864
    123  CB        10.8750  -12.7750  -22.6340 C.3    99  ALA99       0.0319
    124  N          5.6550  -13.0260  -20.8850 N.3   101  LEU101     -0.1231
    125  CA         4.7800  -12.3930  -19.9030 C.3   101  LEU101      0.1693
    126  C          4.9720  -10.8800  -19.8980 C.2   101  LEU101      0.2591
    127  O          4.0070  -10.1210  -19.9810 O.2   101  LEU101     -0.2718
    128  CB         5.0530  -12.9580  -18.5080 C.3   101  LEU101      0.0284
    129  CG         3.9840  -13.8940  -17.9420 C.3   101  LEU101      0.0019
    130  CD1        2.7490  -13.1060  -17.5310 C.3   101  LEU101      0.0001
    131  CD2        3.6210  -14.9660  -18.9590 C.3   101  LEU101      0.0001
    132  N          6.2250  -10.4480  -19.8010 N.am  102  ALA102     -0.1980
    133  CA         6.5440   -9.0260  -19.7890 C.3   102  ALA102      0.1597
    134  C          5.8580   -8.3000  -20.9410 C.2   102  ALA102      0.2287
    135  O          5.5240   -7.1210  -20.8320 O.2   102  ALA102     -0.2864
    136  CB         8.0510   -8.8220  -19.8560 C.3   102  ALA102      0.0319
    137  N          2.9360   -8.4750  -21.9560 N.3   104  VAL104     -0.1231
    138  CA         1.6340   -7.9890  -21.5170 C.3   104  VAL104      0.1692
    139  C          1.7820   -6.8480  -20.5160 C.2   104  VAL104      0.2591
    140  O          0.8540   -6.0660  -20.3090 O.2   104  VAL104     -0.2718
    141  CB         0.8010   -9.1150  -20.8760 C.3   104  VAL104      0.0266
    142  CG1        1.2200   -9.3330  -19.4300 C.3   104  VAL104      0.0020
    143  CG2       -0.6840   -8.7960  -20.9670 C.3   104  VAL104      0.0020
    144  N          2.9550   -6.7600  -19.8980 N.am  105  ILE105     -0.1980
    145  CA         3.2260   -5.7140  -18.9200 C.3   105  ILE105      0.1595
    146  C          3.6260   -4.4110  -19.6040 C.2   105  ILE105      0.2287
    147  O          3.1210   -3.3400  -19.2670 O.2   105  ILE105     -0.2864
    148  CB         4.3410   -6.1310  -17.9430 C.3   105  ILE105      0.0276
    149  CG1        4.1100   -7.5610  -17.4510 C.3   105  ILE105      0.0022
    150  CG2        4.4060   -5.1650  -16.7690 C.3   105  ILE105      0.0022
    151  CD1        5.1940   -8.0640  -16.5240 C.3   105  ILE105      0.0001
    152  N          3.1310   -1.8220  -21.5930 N.3   107  HIS107     -0.1241
    153  CA         2.0300   -1.1860  -22.3080 C.3   107  HIS107      0.1621
    154  C          1.7390    0.1980  -21.7370 C.2   107  HIS107      0.2264
    155  O          2.5020    0.7180  -20.9210 O.2   107  HIS107     -0.2867
    156  CB         0.7750   -2.0560  -22.2330 C.3   107  HIS107      0.0745
    157  CG         0.1320   -2.0630  -20.8800 C.ar  107  HIS107      0.0817
    158  ND1       -1.2020   -2.3520  -20.6820 N.ar  107  HIS107     -0.2268
    159  CD2        0.6480   -1.8170  -19.6530 C.ar  107  HIS107      0.1154
    160  CE1       -1.4790   -2.2820  -19.3920 C.ar  107  HIS107      0.1986
    161  NE2       -0.3730   -1.9590  -18.7460 N.ar  107  HIS107     -0.2212
    162  N         -3.0560    1.1540  -15.3900 N.3   111  HIS111     -0.1241
    163  CA        -3.5510   -0.2160  -15.4740 C.3   111  HIS111      0.1621
    164  C         -2.8150   -1.1210  -14.4900 C.2   111  HIS111      0.2264
    165  O         -3.3780   -2.1270  -14.0620 O.2   111  HIS111     -0.2867
    166  CB        -3.3910   -0.7520  -16.8970 C.3   111  HIS111      0.0745
    167  CG        -4.5310   -1.6150  -17.3430 C.ar  111  HIS111      0.0817
    168  ND1       -4.9160   -1.7310  -18.6620 N.ar  111  HIS111     -0.2268
    169  CD2       -5.3710   -2.4080  -16.6370 C.ar  111  HIS111      0.1154
    170  CE1       -5.9440   -2.5560  -18.7480 C.ar  111  HIS111      0.1986
    171  NE2       -6.2390   -2.9820  -17.5330 N.ar  111  HIS111     -0.2212
@<TRIPOS>BOND
     1   123   120    1
     2   153   156    1
     3   153   154    1
     4   153   152    1
     5   156   157    1
     6   122   121    2
     7   121   120    1
     8   137   138    1
     9   154   155    2
    10   120   119    1
    11   138   141    1
    12   138   139    1
    13   143   141    1
    14   134   135    2
    15   134   133    1
    16   124   125    1
    17   157   158   ar
    18   157   159   ar
    19   141   142    1
    20   158   160   ar
    21   119   116   am
    22   139   140    2
    23   139   144   am
    24   127   126    2
    25   125   126    1
    26   125   128    1
    27   144   145    1
    28   126   132   am
    29   136   133    1
    30   132   133    1
    31   159   161   ar
    32   146   147    2
    33   146   145    1
    34    96    95    1
    35   116   117    2
    36   116   115    1
    37   114   115    1
    38    95    94    1
    39    95    97    1
    40   160   161   ar
    41    38    36    1
    42    94    91    1
    43   112   111    1
    44   131   129    1
    45   145   148    1
    46    37    36    1
    47   170   168   ar
    48   170   171   ar
    49   168   167   ar
    50   115   118    1
    51    36    35    2
    52   128   129    1
    53    92    93    2
    54    92    91    1
    55    85    86    2
    56    85    84    1
    57    91    90    1
    58   148   149    1
    59   148   150    1
    60   129   130    1
    61   111   113    1
    62   111   110    1
    63    87    88    1
    64    87    84    1
    65    87    89    1
    66   171   169   ar
    67   149   151    1
    68   167   166    1
    69   167   169   ar
    70    83    84    1
    71    35    34    1
    72   110   107    1
    73   166   163    1
    74    34    33    1
    75   107   108    1
    76   107   106    1
    77    33    32    1
    78   109   108    2
    79   163   162    1
    80   163   164    1
    81    31    30    2
    82   101   100    2
    83   105   103    1
    84   164   165    2
    85    30    29    1
    86    32    29    1
    87    75    73    1
    88   102   104    1
    89   102   103    1
    90   102    99    1
    91   100    99    1
    92    29    28    1
    93    76    74    1
    94    53    51    1
    95    98    99    1
    96    74    73    1
    97    73    70    1
    98    72    71    2
    99    70    71    1
   100    70    69    1
   101    52    51    1
   102    51    48    1
   103    71    77   am
   104    48    47    1
   105    48    49    1
   106    23    22    2
   107    12    11    2
   108    26    24    1
   109    77    78    1
   110    21    22    1
   111    21    24    1
   112    21    20    1
   113    25    24    1
   114    25    27    1
   115    49    50    2
   116    78    79    1
   117    78    81    1
   118    11    20   am
   119    11    10    1
   120    80    79    2
   121    13    14    1
   122    13    10    1
   123    60    58    1
   124    14    15    1
   125    58    55    1
   126    58    59    1
   127    68    67    1
   128    10     9    1
   129    64    63    2
   130    81    82    1
   131    55    54    1
   132    55    56    1
   133    39    40    1
   134    16    15    1
   135    16    17    2
   136    43    40    1
   137    43    44    1
   138    40    41    1
   139    62    63    1
   140    62    61    1
   141    62    65    1
   142    19    17    1
   143    17    18    1
   144    45    44    1
   145    66    67    1
   146    66    65    1
   147     4     3    2
   148    46    44    1
   149     7     5    1
   150    56    57    2
   151    41    42    2
   152     3     2    1
   153     2     5    1
   154     2     1    1
   155     5     6    1
   156     8     6    1
