@<TRIPOS>MOLECULE
tmp/2nbnA00.pdb
 155 144 0 0 0
SMALL
GASTEIGER

@<TRIPOS>ATOM
      1  N         -1.8840   -8.4550   -9.7870 N.3    10  ILE10      -0.1245
      2  CA        -1.7180   -9.6640  -10.5850 C.3    10  ILE10       0.1561
      3  C         -2.8740  -10.6320  -10.3630 C.2    10  ILE10       0.2260
      4  O         -3.5570  -11.0280  -11.3070 O.2    10  ILE10      -0.2867
      5  CB        -0.3930  -10.3780  -10.2560 C.3    10  ILE10       0.0252
      6  CG1        0.7930   -9.4490  -10.5240 C.3    10  ILE10       0.0019
      7  CG2       -0.2650  -11.6570  -11.0700 C.3    10  ILE10       0.0019
      8  CD1        2.0560   -9.8590   -9.8000 C.3    10  ILE10       0.0001
      9  N         -5.6730   -9.5610  -12.2400 N.3    13  ARG13      -0.1231
     10  CA        -5.5090   -9.6560  -13.6860 C.3    13  ARG13       0.1694
     11  C         -5.6100  -11.1070  -14.1500 C.2    13  ARG13       0.2591
     12  O         -6.3610  -11.4230  -15.0720 O.2    13  ARG13      -0.2718
     13  CB        -4.1610   -9.0690  -14.1070 C.3    13  ARG13       0.0321
     14  CG        -3.9540   -9.0350  -15.6130 C.3    13  ARG13       0.0489
     15  CD        -5.0440   -8.2320  -16.3060 C.3    13  ARG13       0.2205
     16  NE        -4.4950   -7.3000  -17.2880 N.pl3  13  ARG13      -0.0865
     17  CZ        -4.1230   -7.6570  -18.5120 C.cat  13  ARG13       0.5346
     18  NH1       -4.2390   -8.9180  -18.9030 N.pl3  13  ARG13       0.1354
     19  NH2       -3.6330   -6.7500  -19.3480 N.pl3  13  ARG13       0.1354
     20  N         -4.8490  -11.9840  -13.5030 N.am   14  VAL14      -0.1980
     21  CA        -4.8540  -13.4010  -13.8490 C.3    14  VAL14       0.1595
     22  C         -6.2750  -13.9510  -13.8930 C.2    14  VAL14       0.2287
     23  O         -6.6470  -14.6640  -14.8240 O.2    14  VAL14      -0.2864
     24  CB        -4.0270  -14.2260  -12.8450 C.3    14  VAL14       0.0276
     25  CG1       -2.5420  -14.1050  -13.1500 C.3    14  VAL14       0.0022
     26  CG2       -4.3250  -13.7840  -11.4200 C.3    14  VAL14       0.0022
     27  N         -8.1590  -12.3440  -16.9490 N.3    17  VAL17      -0.1245
     28  CA        -7.6300  -12.5230  -18.2950 C.3    17  VAL17       0.1561
     29  C         -8.7490  -12.8060  -19.2920 C.2    17  VAL17       0.2260
     30  O         -9.6570  -13.5900  -19.0160 O.2    17  VAL17      -0.2867
     31  CB        -6.6080  -13.6740  -18.3480 C.3    17  VAL17       0.0252
     32  CG1       -6.3490  -14.0930  -19.7870 C.3    17  VAL17       0.0019
     33  CG2       -5.3130  -13.2680  -17.6610 C.3    17  VAL17       0.0019
     34  N         -4.5760  -13.0510  -24.7030 N.3    22  PRO22      -0.2102
     35  CA        -3.7190  -14.2400  -24.6570 C.3    22  PRO22       0.1504
     36  C         -4.4400  -15.4940  -25.1400 C.2    22  PRO22       0.2575
     37  O         -5.5270  -15.4140  -25.7130 O.2    22  PRO22      -0.2718
     38  CB        -3.3650  -14.3650  -23.1730 C.3    22  PRO22       0.0282
     39  CG        -4.4860  -13.6910  -22.4590 C.3    22  PRO22       0.0208
     40  CD        -4.9380  -12.5740  -23.3580 C.3    22  PRO22       0.0893
     41  N         -3.8300  -16.6500  -24.9040 N.am   23  ARG23      -0.1980
     42  CA        -4.4140  -17.9210  -25.3150 C.3    23  ARG23       0.1597
     43  C         -4.0510  -19.0300  -24.3320 C.2    23  ARG23       0.2287
     44  O         -3.1700  -18.8630  -23.4880 O.2    23  ARG23      -0.2864
     45  CB        -3.9370  -18.2940  -26.7200 C.3    23  ARG23       0.0334
     46  CG        -4.5130  -17.4090  -27.8140 C.3    23  ARG23       0.0492
     47  CD        -6.0330  -17.4450  -27.8170 C.3    23  ARG23       0.2205
     48  NE        -6.5690  -17.8200  -29.1230 N.pl3  23  ARG23      -0.0865
     49  CZ        -6.6540  -19.0760  -29.5490 C.cat  23  ARG23       0.5346
     50  NH1       -6.2410  -20.0710  -28.7770 N.pl3  23  ARG23       0.1354
     51  NH2       -7.1540  -19.3370  -30.7500 N.pl3  23  ARG23       0.1354
     52  N         -2.4100  -21.2090  -22.3190 N.3    25  VAL25      -0.1245
     53  CA        -0.9870  -21.4230  -22.0840 C.3    25  VAL25       0.1561
     54  C         -0.7620  -22.4270  -20.9580 C.2    25  VAL25       0.2260
     55  O         -1.7070  -22.8520  -20.2930 O.2    25  VAL25      -0.2867
     56  CB        -0.2720  -20.1060  -21.7320 C.3    25  VAL25       0.0252
     57  CG1       -0.1630  -19.2130  -22.9590 C.3    25  VAL25       0.0019
     58  CG2       -0.9990  -19.3890  -20.6040 C.3    25  VAL25       0.0019
     59  N          5.4440  -19.6710  -12.9120 N.3    29  PHE29      -0.1241
     60  CA         6.4380  -18.6290  -12.6810 C.3    29  PHE29       0.1605
     61  C          6.7540  -18.4990  -11.1940 C.2    29  PHE29       0.2264
     62  O          5.8600  -18.5720  -10.3510 O.2    29  PHE29      -0.2867
     63  CB         5.9420  -17.2900  -13.2280 C.3    29  PHE29       0.0534
     64  CG         5.5800  -17.3340  -14.6850 C.ar   29  PHE29      -0.0203
     65  CD1        6.4600  -17.8650  -15.6150 C.ar   29  PHE29      -0.0042
     66  CD2        4.3610  -16.8460  -15.1260 C.ar   29  PHE29      -0.0042
     67  CE1        6.1310  -17.9080  -16.9570 C.ar   29  PHE29      -0.0003
     68  CE2        4.0260  -16.8860  -16.4660 C.ar   29  PHE29      -0.0003
     69  CZ         4.9120  -17.4170  -17.3830 C.ar   29  PHE29      -0.0000
     70  N          8.0940  -15.8900   -8.7470 N.3    31  LEU31      -0.1245
     71  CA         8.4590  -14.5090   -8.4470 C.3    31  LEU31       0.1561
     72  C          9.0830  -14.4000   -7.0590 C.2    31  LEU31       0.2260
     73  O          8.5300  -14.8970   -6.0780 O.2    31  LEU31      -0.2867
     74  CB         7.2280  -13.6050   -8.5370 C.3    31  LEU31       0.0270
     75  CG         7.2510  -12.3510   -7.6620 C.3    31  LEU31       0.0019
     76  CD1        8.4590  -11.4890   -7.9960 C.3    31  LEU31       0.0001
     77  CD2        5.9640  -11.5580   -7.8330 C.3    31  LEU31       0.0001
     78  N          3.2230  -18.1660   -9.6870 N.3    44  VAL44      -0.1231
     79  CA         2.2410  -17.6810  -10.6490 C.3    44  VAL44       0.1692
     80  C          2.0460  -18.6780  -11.7860 C.2    44  VAL44       0.2592
     81  O          2.8920  -18.7970  -12.6730 O.2    44  VAL44      -0.2718
     82  CB         2.6570  -16.3210  -11.2400 C.3    44  VAL44       0.0266
     83  CG1        1.4320  -15.5240  -11.6620 C.3    44  VAL44       0.0020
     84  CG2        3.4930  -15.5390  -10.2380 C.3    44  VAL44       0.0020
     85  N          0.9270  -19.3930  -11.7530 N.am   45  ASP45      -0.1960
     86  CA         0.6200  -20.3810  -12.7810 C.3    45  ASP45       0.1840
     87  C         -0.0680  -19.7260  -13.9750 C.2    45  ASP45       0.2621
     88  O         -0.7660  -18.7210  -13.8280 O.2    45  ASP45      -0.2715
     89  CB        -0.2680  -21.4860  -12.2090 C.3    45  ASP45       0.1450
     90  CG        -1.2860  -21.9900  -13.2130 C.2    45  ASP45       0.3671
     91  OD1       -2.3890  -21.4080  -13.2820 O.co2  45  ASP45      -0.2456
     92  OD2       -0.9790  -22.9650  -13.9290 O.co2  45  ASP45      -0.2456
     93  N          0.1340  -20.2990  -15.1560 N.am   46  LEU46      -0.1977
     94  CA        -0.4660  -19.7710  -16.3760 C.3    46  LEU46       0.1596
     95  C         -1.4970  -20.7430  -16.9410 C.2    46  LEU46       0.2287
     96  O         -2.2900  -20.3870  -17.8130 O.2    46  LEU46      -0.2864
     97  CB         0.6160  -19.4930  -17.4210 C.3    46  LEU46       0.0297
     98  CG         1.8840  -20.3410  -17.3170 C.3    46  LEU46       0.0022
     99  CD1        2.5780  -20.4310  -18.6670 C.3    46  LEU46       0.0001
    100  CD2        2.8250  -19.7660  -16.2680 C.3    46  LEU46       0.0001
    101  N         -4.3020  -19.7110  -14.6120 N.3    49  LEU49      -0.1245
    102  CA        -4.2130  -18.2860  -14.3150 C.3    49  LEU49       0.1561
    103  C         -4.5140  -18.0150  -12.8450 C.2    49  LEU49       0.2260
    104  O         -5.5920  -17.5310  -12.4990 O.2    49  LEU49      -0.2867
    105  CB        -5.1840  -17.4990  -15.1990 C.3    49  LEU49       0.0270
    106  CG        -4.6330  -17.0260  -16.5440 C.3    49  LEU49       0.0019
    107  CD1       -3.4470  -16.0960  -16.3390 C.3    49  LEU49       0.0001
    108  CD2       -4.2370  -18.2150  -17.4070 C.3    49  LEU49       0.0001
    109  N         11.8000  -16.0970  -11.6180 N.3    63  VAL63      -0.1245
    110  CA        11.9760  -14.6550  -11.7460 C.3    63  VAL63       0.1561
    111  C         12.5320  -14.0530  -10.4600 C.2    63  VAL63       0.2260
    112  O         12.0360  -14.3290   -9.3670 O.2    63  VAL63      -0.2867
    113  CB        10.6490  -13.9560  -12.0950 C.3    63  VAL63       0.0252
    114  CG1       10.8720  -12.4670  -12.3170 C.3    63  VAL63       0.0019
    115  CG2       10.0160  -14.5970  -13.3210 C.3    63  VAL63       0.0019
    116  N         10.0270   -3.9530   -8.2490 N.3    70  MET70      -0.1245
    117  CA         8.6240   -4.2990   -8.4450 C.3    70  MET70       0.1570
    118  C          7.7330   -3.0720   -8.2840 C.2    70  MET70       0.2261
    119  O          6.9230   -2.7610   -9.1580 O.2    70  MET70      -0.2867
    120  CB         8.2020   -5.3850   -7.4540 C.3    70  MET70       0.0387
    121  CG         8.3790   -6.7970   -7.9870 C.3    70  MET70       0.0595
    122  SD         6.9710   -7.8610   -7.6180 S.3    70  MET70      -0.1393
    123  CE         6.6930   -8.6210   -9.2160 C.3    70  MET70       0.0692
    124  N          7.8580  -13.5210  -22.5200 N.3   100  LYS100     -0.1231
    125  CA         6.5200  -13.5010  -23.1000 C.3   100  LYS100      0.1693
    126  C          5.5410  -12.7740  -22.1840 C.2   100  LYS100      0.2591
    127  O          4.7010  -12.0000  -22.6460 O.2   100  LYS100     -0.2718
    128  CB         6.0320  -14.9290  -23.3550 C.3   100  LYS100      0.0285
    129  CG         4.9780  -15.0260  -24.4450 C.3   100  LYS100      0.0035
    130  CD         4.9140  -16.4250  -25.0350 C.3   100  LYS100      0.0206
    131  CE         3.4760  -16.8930  -25.2020 C.3   100  LYS100      0.1093
    132  NZ         3.3880  -18.3720  -25.3480 N.3   100  LYS100     -0.1314
    133  N          5.6550  -13.0260  -20.8850 N.am  101  LEU101     -0.1980
    134  CA         4.7800  -12.3930  -19.9030 C.3   101  LEU101      0.1596
    135  C          4.9720  -10.8800  -19.8980 C.2   101  LEU101      0.2287
    136  O          4.0070  -10.1210  -19.9810 O.2   101  LEU101     -0.2864
    137  CB         5.0530  -12.9580  -18.5080 C.3   101  LEU101      0.0297
    138  CG         3.9840  -13.8940  -17.9420 C.3   101  LEU101      0.0022
    139  CD1        2.7490  -13.1060  -17.5310 C.3   101  LEU101      0.0001
    140  CD2        3.6210  -14.9660  -18.9590 C.3   101  LEU101      0.0001
    141  N          2.9360   -8.4750  -21.9560 N.3   104  VAL104     -0.1231
    142  CA         1.6340   -7.9890  -21.5170 C.3   104  VAL104      0.1692
    143  C          1.7820   -6.8480  -20.5160 C.2   104  VAL104      0.2591
    144  O          0.8540   -6.0660  -20.3090 O.2   104  VAL104     -0.2718
    145  CB         0.8010   -9.1150  -20.8760 C.3   104  VAL104      0.0266
    146  CG1        1.2200   -9.3330  -19.4300 C.3   104  VAL104      0.0020
    147  CG2       -0.6840   -8.7960  -20.9670 C.3   104  VAL104      0.0020
    148  N          2.9550   -6.7600  -19.8980 N.am  105  ILE105     -0.1980
    149  CA         3.2260   -5.7140  -18.9200 C.3   105  ILE105      0.1595
    150  C          3.6260   -4.4110  -19.6040 C.2   105  ILE105      0.2287
    151  O          3.1210   -3.3400  -19.2670 O.2   105  ILE105     -0.2864
    152  CB         4.3410   -6.1310  -17.9430 C.3   105  ILE105      0.0276
    153  CG1        4.1100   -7.5610  -17.4510 C.3   105  ILE105      0.0022
    154  CG2        4.4060   -5.1650  -16.7690 C.3   105  ILE105      0.0022
    155  CD1        5.1940   -8.0640  -16.5240 C.3   105  ILE105      0.0001
@<TRIPOS>BOND
     1    51    49    1
     2    49    48    2
     3    49    50    1
     4    48    47    1
     5    47    46    1
     6    46    45    1
     7    45    42    1
     8    37    36    2
     9   132   131    1
    10    42    41    1
    11    42    43    1
    12   131   130    1
    13    36    41   am
    14    36    35    1
    15   130   129    1
    16    34    35    1
    17    34    40    1
    18    35    38    1
    19   129   128    1
    20    43    44    2
    21    40    39    1
    22   128   125    1
    23    38    39    1
    24   125   124    1
    25   125   126    1
    26    57    56    1
    27   127   126    2
    28    52    53    1
    29   126   133   am
    30    53    56    1
    31    53    54    1
    32   141   142    1
    33    56    58    1
    34   142   145    1
    35   142   143    1
    36   147   145    1
    37    54    55    2
    38   133   134    1
    39   145   146    1
    40   143   144    2
    41   143   148   am
    42   136   135    2
    43   134   135    1
    44   134   137    1
    45   148   149    1
    46    32    31    1
    47   150   151    2
    48   150   149    1
    49    19    17    1
    50    29    30    2
    51    29    28    1
    52   140   138    1
    53   149   152    1
    54    18    17    1
    55    99    98    1
    56    17    16    2
    57   137   138    1
    58    31    28    1
    59    31    33    1
    60    28    27    1
    61   152   153    1
    62   152   154    1
    63   138   139    1
    64    96    95    2
    65   153   155    1
    66    97    98    1
    67    97    94    1
    68   108   106    1
    69    69    67   ar
    70    69    68   ar
    71    98   100    1
    72    16    15    1
    73    67    65   ar
    74    95    94    1
    75   106   107    1
    76   106   105    1
    77    68    66   ar
    78    94    93    1
    79    15    14    1
    80    65    64   ar
    81    14    13    1
    82   105   102    1
    83    93    87   am
    84    66    64   ar
    85    12    11    2
    86    23    22    2
    87    64    63    1
    88   101   102    1
    89   102   103    1
    90    11    10    1
    91    11    20   am
    92    13    10    1
    93    87    88    2
    94    87    86    1
    95    92    90   ar
    96    22    21    1
    97    21    20    1
    98    21    24    1
    99    10     9    1
   100   115   113    1
   101    91    90   ar
   102    63    60    1
   103    90    89    1
   104    25    24    1
   105    59    60    1
   106   103   104    2
   107    24    26    1
   108    86    89    1
   109    86    85    1
   110    60    61    1
   111    81    80    2
   112   114   113    1
   113   113   110    1
   114    80    85   am
   115    80    79    1
   116   110   109    1
   117   110   111    1
   118    83    82    1
   119     4     3    2
   120    82    79    1
   121    82    84    1
   122    61    62    2
   123     7     5    1
   124    79    78    1
   125     2     3    1
   126     2     5    1
   127     2     1    1
   128     6     5    1
   129     6     8    1
   130   111   112    2
   131   123   122    1
   132   119   118    2
   133    70    71    1
   134    74    71    1
   135    74    75    1
   136    71    72    1
   137   117   118    1
   138   117   116    1
   139   117   120    1
   140    76    75    1
   141   121   122    1
   142   121   120    1
   143    77    75    1
   144    72    73    2
