@<TRIPOS>MOLECULE
tmp/2ndoA00.pdb
 94 91 0 0 0
SMALL
GASTEIGER

@<TRIPOS>ATOM
      1  N          0.0860   -9.7080   -7.0690 N.3    32  HIS32      -0.1241
      2  CA         1.4240   -9.3640   -6.6200 C.3    32  HIS32       0.1621
      3  C          1.3550   -8.6710   -5.2640 C.2    32  HIS32       0.2264
      4  O          2.2930   -8.7400   -4.4710 O.2    32  HIS32      -0.2867
      5  CB         2.1040   -8.4490   -7.6390 C.3    32  HIS32       0.0745
      6  CG         3.5960   -8.5100   -7.6180 C.ar   32  HIS32       0.0817
      7  ND1        4.3470   -8.3310   -6.4740 N.ar   32  HIS32      -0.2268
      8  CD2        4.4830   -8.7190   -8.6170 C.ar   32  HIS32       0.1154
      9  CE1        5.6240   -8.4260   -6.7740 C.ar   32  HIS32       0.1986
     10  NE2        5.7380   -8.6620   -8.0670 N.ar   32  HIS32      -0.2212
     11  N          0.4670  -11.3220   -2.4800 N.3    35  GLN35      -0.1231
     12  CA         1.6710  -12.0420   -2.1090 C.3    35  GLN35       0.1698
     13  C          2.4960  -11.2380   -1.1060 C.2    35  GLN35       0.2592
     14  O          3.0310  -11.7820   -0.1450 O.2    35  GLN35      -0.2718
     15  CB         2.4960  -12.3430   -3.3610 C.3    35  GLN35       0.0381
     16  CG         3.7130  -13.2130   -3.1030 C.3    35  GLN35       0.0905
     17  CD         3.9560  -14.2230   -4.2060 C.2    35  GLN35       0.2608
     18  OE1        3.0190  -14.7010   -4.8480 O.2    35  GLN35      -0.2717
     19  NE2        5.2180  -14.5490   -4.4370 N.am   35  GLN35      -0.0878
     20  N          2.5690   -9.9360   -1.3110 N.am   36  PHE36      -0.1976
     21  CA         3.3400   -9.0790   -0.4230 C.3    36  PHE36       0.1639
     22  C          2.5790   -8.7910    0.8710 C.2    36  PHE36       0.2290
     23  O          3.1870   -8.5520    1.9120 O.2    36  PHE36      -0.2864
     24  CB         3.7090   -7.7740   -1.1360 C.3    36  PHE36       0.0560
     25  CG         4.9600   -7.8750   -1.9630 C.ar   36  PHE36      -0.0200
     26  CD1        5.2110   -9.0030   -2.7300 C.ar   36  PHE36      -0.0042
     27  CD2        5.8860   -6.8430   -1.9730 C.ar   36  PHE36      -0.0042
     28  CE1        6.3600   -9.0990   -3.4910 C.ar   36  PHE36      -0.0003
     29  CE2        7.0380   -6.9360   -2.7340 C.ar   36  PHE36      -0.0003
     30  CZ         7.2760   -8.0660   -3.4910 C.ar   36  PHE36      -0.0000
     31  N          4.0860  -12.5300    2.2610 N.3    40  LEU40      -0.1245
     32  CA         5.2640  -11.9130    2.8640 C.3    40  LEU40       0.1561
     33  C          4.9160  -11.0410    4.0700 C.2    40  LEU40       0.2260
     34  O          5.7080  -10.9320    5.0050 O.2    40  LEU40      -0.2867
     35  CB         6.0050  -11.0710    1.8230 C.3    40  LEU40       0.0270
     36  CG         6.4020  -11.8090    0.5400 C.3    40  LEU40       0.0019
     37  CD1        7.1920  -10.8910   -0.3780 C.3    40  LEU40       0.0001
     38  CD2        7.1990  -13.0610    0.8630 C.3    40  LEU40       0.0001
     39  N         12.9740   -4.0340   -5.0320 N.3   163  PRO163     -0.2102
     40  CA        12.9250   -5.4500   -4.6550 C.3   163  PRO163      0.1504
     41  C         13.7790   -6.3330   -5.5650 C.2   163  PRO163      0.2575
     42  O         14.1490   -7.4490   -5.2000 O.2   163  PRO163     -0.2718
     43  CB        11.4410   -5.7950   -4.8100 C.3   163  PRO163      0.0282
     44  CG        10.9300   -4.8600   -5.8470 C.3   163  PRO163      0.0208
     45  CD        11.7300   -3.5920   -5.6970 C.3   163  PRO163      0.0893
     46  N         14.1120   -5.8150   -6.7440 N.am  164  GLN164     -0.1980
     47  CA        14.9160   -6.5580   -7.7070 C.3   164  GLN164      0.1601
     48  C         16.4030   -6.4210   -7.3960 C.2   164  GLN164      0.2287
     49  O         17.2520   -6.9700   -8.0950 O.2   164  GLN164     -0.2864
     50  CB        14.6190   -6.0800   -9.1290 C.3   164  GLN164      0.0394
     51  CG        13.1960   -6.3760   -9.5740 C.3   164  GLN164      0.0908
     52  CD        12.9380   -5.9640  -11.0070 C.2   164  GLN164      0.2608
     53  OE1       12.4770   -4.8530  -11.2730 O.2   164  GLN164     -0.2717
     54  NE2       13.2360   -6.8510  -11.9400 N.am  164  GLN164     -0.0878
     55  N         17.8200   -9.8450   -1.8990 N.3   167  ASP167     -0.1225
     56  CA        17.9790  -11.2920   -1.9390 C.3   167  ASP167      0.1805
     57  C         16.7200  -11.9410   -2.4890 C.2   167  ASP167      0.2598
     58  O         15.6210  -11.7050   -1.9930 O.2   167  ASP167     -0.2718
     59  CB        18.2790  -11.8560   -0.5480 C.3   167  ASP167      0.1424
     60  CG        18.5770  -13.3470   -0.5750 C.2   167  ASP167      0.3668
     61  OD1       17.6400  -14.1540   -0.7430 O.co2 167  ASP167     -0.2456
     62  OD2       19.7580  -13.7220   -0.4280 O.co2 167  ASP167     -0.2456
     63  N         16.8830  -12.7380   -3.5270 N.am  168  THR168     -0.1939
     64  CA        15.7640  -13.4270   -4.1320 C.3   168  THR168      0.2028
     65  C         15.9770  -14.9330   -4.0430 C.2   168  THR168      0.2642
     66  O         15.5440  -15.6960   -4.9090 O.2   168  THR168     -0.2714
     67  CB        15.5860  -13.0030   -5.6000 C.3   168  THR168      0.1808
     68  OG1       16.5780  -12.0240   -5.9380 O.3   168  THR168     -0.2208
     69  CG2       14.1970  -12.4210   -5.8300 C.3   168  THR168      0.0379
     70  N         16.6490  -15.3480   -2.9780 N.am  169  SER169     -0.1949
     71  CA        16.9390  -16.7530   -2.7490 C.3   169  SER169      0.1924
     72  C         16.1580  -17.2770   -1.5480 C.2   169  SER169      0.2314
     73  O         15.6940  -18.4190   -1.5470 O.2   169  SER169     -0.2863
     74  CB        18.4400  -16.9360   -2.5250 C.3   169  SER169      0.2116
     75  OG        19.1360  -15.7110   -2.7090 O.3   169  SER169     -0.2180
     76  N         12.9730  -16.2510    1.0280 N.3   171  MET171     -0.1245
     77  CA        11.8240  -15.3980    1.3250 C.3   171  MET171      0.1570
     78  C         11.9900  -14.6760    2.6560 C.2   171  MET171      0.2261
     79  O         11.6670  -13.4960    2.7700 O.2   171  MET171     -0.2867
     80  CB        10.5410  -16.2330    1.3640 C.3   171  MET171      0.0387
     81  CG        10.0280  -16.6520   -0.0030 C.3   171  MET171      0.0595
     82  SD         9.3950  -15.2620   -0.9630 S.3   171  MET171     -0.1393
     83  CE         8.3250  -16.1140   -2.1190 C.3   171  MET171      0.0692
     84  N         14.3870  -11.7500    2.2330 N.3   174  PHE174     -0.1241
     85  CA        13.7510  -10.7070    1.4270 C.3   174  PHE174      0.1605
     86  C         12.7990   -9.8490    2.2630 C.2   174  PHE174      0.2264
     87  O         12.8800   -8.6200    2.2430 O.2   174  PHE174     -0.2867
     88  CB        12.9970  -11.3360    0.2500 C.3   174  PHE174      0.0534
     89  CG        12.3170  -10.3300   -0.6450 C.ar  174  PHE174     -0.0203
     90  CD1       13.0520   -9.5720   -1.5440 C.ar  174  PHE174     -0.0042
     91  CD2       10.9410  -10.1510   -0.5910 C.ar  174  PHE174     -0.0042
     92  CE1       12.4300   -8.6550   -2.3710 C.ar  174  PHE174     -0.0003
     93  CE2       10.3130   -9.2340   -1.4150 C.ar  174  PHE174     -0.0003
     94  CZ        11.0590   -8.4840   -2.3070 C.ar  174  PHE174     -0.0000
@<TRIPOS>BOND
     1    54    52   am
     2    53    52    2
     3    52    51    1
     4    51    50    1
     5    50    47    1
     6     8    10   ar
     7     8     6   ar
     8    49    48    2
     9    10     9   ar
    10    47    48    1
    11    47    46    1
    12     5     6    1
    13     5     2    1
    14     6     7   ar
    15     1     2    1
    16     9     7   ar
    17    46    41   am
    18     2     3    1
    19    68    67    1
    20    44    45    1
    21    44    43    1
    22    69    67    1
    23    45    39    1
    24    67    64    1
    25    41    42    2
    26    41    40    1
    27     3     4    2
    28    39    40    1
    29    66    65    2
    30    18    17    2
    31    43    40    1
    32    19    17   am
    33    17    16    1
    34    64    65    1
    35    64    63    1
    36    65    70   am
    37    63    57   am
    38    30    28   ar
    39    30    29   ar
    40    28    26   ar
    41    15    16    1
    42    15    12    1
    43    70    71    1
    44    71    74    1
    45    71    72    1
    46    29    27   ar
    47    26    25   ar
    48    75    74    1
    49    57    58    2
    50    57    56    1
    51    11    12    1
    52    92    94   ar
    53    92    90   ar
    54    94    93   ar
    55    83    82    1
    56    12    13    1
    57    27    25   ar
    58    25    24    1
    59    56    55    1
    60    56    59    1
    61    72    73    2
    62    90    89   ar
    63    93    91   ar
    64    20    13   am
    65    20    21    1
    66    24    21    1
    67    13    14    2
    68    82    81    1
    69    61    60   ar
    70    89    91   ar
    71    89    88    1
    72    60    59    1
    73    60    62   ar
    74    21    22    1
    75    37    36    1
    76    81    80    1
    77    88    85    1
    78    36    38    1
    79    36    35    1
    80    22    23    2
    81    76    77    1
    82    77    80    1
    83    77    78    1
    84    85    84    1
    85    85    86    1
    86    35    32    1
    87    87    86    2
    88    31    32    1
    89    78    79    2
    90    32    33    1
    91    33    34    2
