@<TRIPOS>MOLECULE
tmp/2nliB00.pdb
 212 200 0 0 0
SMALL
GASTEIGER

@<TRIPOS>ATOM
      1  N          5.1160  -25.7780  -10.0310 N.3    34  TYR34      -0.1227
      2  CA         5.4300  -26.5980  -11.1910 C.3    34  TYR34       0.1736
      3  C          4.3020  -26.4870  -12.2080 C.2    34  TYR34       0.2595
      4  O          4.5580  -26.3130  -13.4010 O.2    34  TYR34      -0.2718
      5  CB         5.6600  -28.0630  -10.7880 C.3    34  TYR34       0.0548
      6  CG         5.7090  -29.0260  -11.9530 C.ar   34  TYR34      -0.0200
      7  CD1        6.8430  -29.1180  -12.7680 C.ar   34  TYR34      -0.0009
      8  CD2        4.6140  -29.8330  -12.2570 C.ar   34  TYR34      -0.0009
      9  CE1        6.8810  -30.0030  -13.8440 C.ar   34  TYR34       0.0417
     10  CE2        4.6460  -30.7180  -13.3250 C.ar   34  TYR34       0.0417
     11  CZ         5.7720  -30.7960  -14.1140 C.ar   34  TYR34       0.1957
     12  OH         5.7920  -31.6830  -15.1660 O.3    34  TYR34      -0.2866
     13  N          3.0650  -26.5770  -11.7230 N.am   35  ILE35      -0.1980
     14  CA         1.8810  -26.5250  -12.5900 C.3    35  ILE35       0.1595
     15  C          1.6460  -25.1230  -13.1680 C.2    35  ILE35       0.2287
     16  O          1.4520  -24.9670  -14.3760 O.2    35  ILE35      -0.2864
     17  CB         0.5970  -27.0050  -11.8490 C.3    35  ILE35       0.0276
     18  CG1        0.7150  -28.4880  -11.4640 C.3    35  ILE35       0.0022
     19  CG2       -0.6780  -26.7290  -12.6890 C.3    35  ILE35       0.0022
     20  CD1       -0.3270  -28.9270  -10.4280 C.3    35  ILE35       0.0001
     21  N          3.7120  -16.4460  -21.0900 N.3    45  LYS45      -0.1245
     22  CA         2.4400  -16.9450  -20.5420 C.3    45  LYS45       0.1561
     23  C          1.3640  -15.8520  -20.5170 C.2    45  LYS45       0.2260
     24  O          0.1730  -16.1150  -20.8520 O.2    45  LYS45      -0.2867
     25  CB         2.6260  -17.5580  -19.1460 C.3    45  LYS45       0.0271
     26  CG         1.3460  -18.1940  -18.6170 C.3    45  LYS45       0.0035
     27  CD         1.5930  -19.0990  -17.3990 C.3    45  LYS45       0.0206
     28  CE         2.1420  -18.3290  -16.2320 C.3    45  LYS45       0.1093
     29  NZ         1.0860  -17.6620  -15.4400 N.3    45  LYS45      -0.1314
     30  N          0.2090  -15.4120  -24.0180 N.3    48  ASN48      -0.1240
     31  CA        -0.8130  -16.3880  -24.3770 C.3    48  ASN48       0.1653
     32  C         -2.2020  -15.9130  -23.9730 C.2    48  ASN48       0.2266
     33  O         -3.1830  -16.1590  -24.6700 O.2    48  ASN48      -0.2867
     34  CB        -0.5580  -17.7360  -23.6930 C.3    48  ASN48       0.1155
     35  CG         0.6030  -18.5160  -24.2980 C.2    48  ASN48       0.2627
     36  OD1        1.1150  -18.2030  -25.3820 O.2    48  ASN48      -0.2716
     37  ND2        0.9910  -19.5960  -23.6040 N.am   48  ASN48      -0.0877
     38  N         -5.3900  -31.8240  -22.9030 N.3    86  ALA86      -0.1231
     39  CA        -3.9580  -31.7890  -23.2620 C.3    86  ALA86       0.1679
     40  C         -3.1530  -32.8240  -22.4640 C.2    86  ALA86       0.2434
     41  O         -3.5230  -33.1330  -21.3320 O.2    86  ALA86      -0.2733
     42  CB        -3.3920  -30.3930  -22.9990 C.3    86  ALA86       0.0304
     43  N         -2.0560  -33.3600  -23.0380 N.am   87  PRO87      -0.2718
     44  CA        -1.1570  -34.2650  -22.3040 C.3    87  PRO87       0.1535
     45  C         -0.4000  -33.4510  -21.2680 C.2    87  PRO87       0.2598
     46  O          0.2970  -32.4910  -21.6210 O.2    87  PRO87      -0.2715
     47  CB        -0.2190  -34.7900  -23.3900 C.3    87  PRO87       0.0310
     48  CG        -0.2360  -33.6990  -24.4790 C.3    87  PRO87       0.0237
     49  CD        -1.6360  -33.1680  -24.4460 C.3    87  PRO87       0.0939
     50  N         -0.5570  -33.8040  -19.9930 N.am   88  ILE88      -0.1964
     51  CA         0.1160  -33.1030  -18.9210 C.3    88  ILE88       0.1727
     52  C          0.7250  -34.1590  -18.0060 C.2    88  ILE88       0.2616
     53  O          0.0540  -35.1240  -17.6670 O.2    88  ILE88      -0.2715
     54  CB        -0.8810  -32.1940  -18.1530 C.3    88  ILE88       0.0290
     55  CG1       -1.1240  -30.9160  -18.9570 C.3    88  ILE88       0.0022
     56  CG2       -0.3600  -31.8150  -16.7520 C.3    88  ILE88       0.0023
     57  CD1       -2.0670  -29.9070  -18.3040 C.3    88  ILE88       0.0001
     58  N          1.9920  -33.9700  -17.6360 N.am   89  ALA89      -0.1977
     59  CA         2.6990  -34.9170  -16.7600 C.3    89  ALA89       0.1597
     60  C          2.2410  -34.8490  -15.3160 C.2    89  ALA89       0.2287
     61  O          1.8110  -33.8020  -14.8340 O.2    89  ALA89      -0.2864
     62  CB         4.2040  -34.6520  -16.8130 C.3    89  ALA89       0.0319
     63  N          0.0430  -38.3090  -21.1240 N.3   116  SER116     -0.1217
     64  CA         1.4240  -37.8440  -21.1440 C.3   116  SER116      0.1889
     65  C          2.4170  -39.0020  -21.1170 C.2   116  SER116      0.2288
     66  O          2.1180  -40.0740  -20.5840 O.2   116  SER116     -0.2866
     67  CB         1.6880  -36.9290  -19.9410 C.3   116  SER116      0.2089
     68  OG         3.0790  -36.6920  -19.7860 O.3   116  SER116     -0.2183
     69  N          4.9650  -38.8300  -19.3110 N.3   118  TYR118     -0.1241
     70  CA         5.4020  -38.8350  -17.9190 C.3   118  TYR118      0.1605
     71  C          4.2230  -38.9100  -16.9490 C.2   118  TYR118      0.2264
     72  O          4.1140  -38.1210  -16.0050 O.2   118  TYR118     -0.2867
     73  CB         6.2790  -37.6060  -17.6310 C.3   118  TYR118      0.0534
     74  CG         7.5750  -37.5670  -18.4320 C.ar  118  TYR118     -0.0201
     75  CD1        8.1150  -36.3530  -18.8620 C.ar  118  TYR118     -0.0009
     76  CD2        8.2510  -38.7470  -18.7680 C.ar  118  TYR118     -0.0009
     77  CE1        9.3060  -36.3140  -19.5940 C.ar  118  TYR118      0.0417
     78  CE2        9.4340  -38.7210  -19.5050 C.ar  118  TYR118      0.0417
     79  CZ         9.9590  -37.5050  -19.9140 C.ar  118  TYR118      0.1957
     80  OH        11.1340  -37.4840  -20.6460 O.3   118  TYR118     -0.2866
     81  N          0.7330  -39.3760  -25.8520 N.3   138  GLN138     -0.1245
     82  CA         1.7870  -38.4190  -26.1470 C.3   138  GLN138      0.1566
     83  C          3.1410  -39.0540  -25.8910 C.2   138  GLN138      0.2260
     84  O          3.3740  -39.6450  -24.8200 O.2   138  GLN138     -0.2867
     85  CB         1.6280  -37.1370  -25.3010 C.3   138  GLN138      0.0367
     86  CG         2.7060  -36.0860  -25.5780 C.3   138  GLN138      0.0905
     87  CD         3.8770  -36.1890  -24.6270 C.2   138  GLN138      0.2608
     88  OE1        5.0460  -36.2040  -25.0380 O.2   138  GLN138     -0.2717
     89  NE2        3.5780  -36.2390  -23.3540 N.am  138  GLN138     -0.0878
     90  N          7.6270  -38.5890  -26.4710 N.3   140  TYR140     -0.1241
     91  CA         8.7970  -37.8340  -26.9020 C.3   140  TYR140      0.1605
     92  C          9.6060  -38.7270  -27.8320 C.2   140  TYR140      0.2264
     93  O          9.4720  -39.9460  -27.7790 O.2   140  TYR140     -0.2867
     94  CB         9.6310  -37.3810  -25.7070 C.3   140  TYR140      0.0534
     95  CG         8.9290  -36.3980  -24.7900 C.ar  140  TYR140     -0.0201
     96  CD1        8.6450  -35.0970  -25.2080 C.ar  140  TYR140     -0.0009
     97  CD2        8.5560  -36.7630  -23.5000 C.ar  140  TYR140     -0.0009
     98  CE1        8.0010  -34.1890  -24.3680 C.ar  140  TYR140      0.0417
     99  CE2        7.9220  -35.8580  -22.6560 C.ar  140  TYR140      0.0417
    100  CZ         7.6500  -34.5760  -23.0970 C.ar  140  TYR140      0.1957
    101  OH         7.0210  -33.6690  -22.2690 O.3   140  TYR140     -0.2866
    102  N          5.5110  -34.8140  -29.2890 N.3   166  THR166     -0.1218
    103  CA         5.8350  -33.4740  -28.8050 C.3   166  THR166      0.1862
    104  C          7.2210  -33.0840  -29.2820 C.2   166  THR166      0.2287
    105  O          8.2080  -33.7980  -29.0420 O.2   166  THR166     -0.2866
    106  CB         5.6680  -33.3900  -27.2840 C.3   166  THR166      0.1770
    107  OG1        4.2910  -33.6380  -26.9780 O.3   166  THR166     -0.2211
    108  CG2        6.0520  -32.0120  -26.7560 C.3   166  THR166      0.0375
    109  N          3.1320  -31.8400  -32.0430 N.3   193  LYS193     -0.1245
    110  CA         2.7440  -30.8310  -31.0530 C.3   193  LYS193      0.1561
    111  C          3.8820  -29.8680  -30.7210 C.2   193  LYS193      0.2260
    112  O          5.0300  -30.2880  -30.5210 O.2   193  LYS193     -0.2867
    113  CB         2.2430  -31.5280  -29.7920 C.3   193  LYS193      0.0271
    114  CG         1.9330  -30.5880  -28.6420 C.3   193  LYS193      0.0035
    115  CD         1.1590  -31.3110  -27.5160 C.3   193  LYS193      0.0206
    116  CE         0.8050  -30.3890  -26.3600 C.3   193  LYS193      0.1093
    117  NZ         1.9520  -30.1950  -25.4230 N.3   193  LYS193     -0.1314
    118  N          0.9600  -25.1030  -30.4070 N.3   215  SER215     -0.1217
    119  CA         1.1820  -25.0530  -28.9710 C.3   215  SER215      0.1889
    120  C          2.5380  -24.4530  -28.6780 C.2   215  SER215      0.2288
    121  O          3.5150  -24.6690  -29.4310 O.2   215  SER215     -0.2866
    122  CB         1.1580  -26.4870  -28.4330 C.3   215  SER215      0.2089
    123  OG         1.3500  -26.5180  -27.0220 O.3   215  SER215     -0.2183
    124  N          3.2550  -25.1920  -25.3910 N.3   217  HIS217     -0.1226
    125  CA         3.2730  -25.9620  -24.1320 C.3   217  HIS217      0.1752
    126  C          2.9590  -25.0950  -22.9220 C.2   217  HIS217      0.2596
    127  O          3.5750  -25.2310  -21.8530 O.2   217  HIS217     -0.2718
    128  CB         4.6090  -26.7210  -23.9980 C.3   217  HIS217      0.0759
    129  CG         5.0360  -27.3770  -25.2760 C.ar  217  HIS217      0.0818
    130  ND1        4.2650  -28.3210  -25.9280 N.ar  217  HIS217     -0.2268
    131  CD2        6.1190  -27.1670  -26.0600 C.ar  217  HIS217      0.1154
    132  CE1        4.8770  -28.6940  -27.0380 C.ar  217  HIS217      0.1986
    133  NE2        6.0090  -28.0140  -27.1370 N.ar  217  HIS217     -0.2212
    134  N          1.9900  -24.1980  -23.0830 N.am  218  GLY218     -0.1957
    135  CA         1.5690  -23.3220  -21.9860 C.3   218  GLY218      0.1869
    136  C          2.6820  -22.4140  -21.5170 C.2   218  GLY218      0.2309
    137  O          2.7960  -22.1280  -20.3310 O.2   218  GLY218     -0.2863
    138  N          5.8260  -22.9780  -21.3030 N.3   220  ARG220     -0.1245
    139  CA         6.7810  -23.6470  -20.4030 C.3   220  ARG220      0.1563
    140  C          8.1210  -23.9220  -21.0660 C.2   220  ARG220      0.2260
    141  O          9.0560  -24.4090  -20.4070 O.2   220  ARG220     -0.2867
    142  CB         6.1730  -24.9550  -19.8800 C.3   220  ARG220      0.0307
    143  CG         4.9250  -24.7250  -19.0500 C.3   220  ARG220      0.0489
    144  CD         4.1590  -26.0180  -18.8620 C.3   220  ARG220      0.2205
    145  NE         4.8120  -26.9380  -17.9310 N.pl3 220  ARG220     -0.0865
    146  CZ         4.7690  -26.8320  -16.6040 C.cat 220  ARG220      0.5346
    147  NH1        5.3770  -27.7500  -15.8570 N.pl3 220  ARG220      0.1354
    148  NH2        4.1370  -25.8130  -16.0200 N.pl3 220  ARG220      0.1354
    149  N         -3.6440  -25.1950  -28.6460 N.3   248  ASP248     -0.1225
    150  CA        -3.6570  -24.9190  -27.1940 C.3   248  ASP248      0.1805
    151  C         -2.6690  -23.8320  -26.8030 C.2   248  ASP248      0.2598
    152  O         -1.9480  -23.2730  -27.6620 O.2   248  ASP248     -0.2718
    153  CB        -3.4490  -26.2400  -26.3960 C.3   248  ASP248      0.1424
    154  CG        -1.9980  -26.6830  -26.2890 C.2   248  ASP248      0.3668
    155  OD1       -1.0840  -25.8620  -26.4930 O.co2 248  ASP248     -0.2456
    156  OD2       -1.7850  -27.8700  -25.9520 O.co2 248  ASP248     -0.2456
    157  N         -2.6720  -23.5520  -25.4900 N.am  249  SER249     -0.1938
    158  CA        -1.7730  -22.6630  -24.7600 C.3   249  SER249      0.2055
    159  C         -2.4900  -21.3660  -24.4690 C.2   249  SER249      0.2644
    160  O         -2.4030  -20.4000  -25.2220 O.2   249  SER249     -0.2714
    161  CB        -0.3920  -22.4560  -25.4320 C.3   249  SER249      0.2130
    162  OG         0.2850  -23.7040  -25.5590 O.3   249  SER249     -0.2179
    163  N         -3.2280  -21.3630  -23.3590 N.am  250  GLY250     -0.1939
    164  CA        -3.8990  -20.1590  -22.9030 C.3   250  GLY250      0.2014
    165  C         -5.4190  -20.1620  -22.9410 C.2   250  GLY250      0.2639
    166  O         -6.0130  -19.1380  -22.6300 O.2   250  GLY250     -0.2714
    167  N         -6.0540  -21.2720  -23.3580 N.am  251  VAL251     -0.1963
    168  CA        -7.5340  -21.3190  -23.3940 C.3   251  VAL251      0.1727
    169  C         -8.1060  -21.2530  -21.9700 C.2   251  VAL251      0.2616
    170  O         -7.8350  -22.1500  -21.1580 O.2   251  VAL251     -0.2715
    171  CB        -8.0350  -22.5680  -24.1130 C.3   251  VAL251      0.0290
    172  CG1       -9.5460  -22.6240  -24.0710 C.3   251  VAL251      0.0023
    173  CG2       -7.5210  -22.5490  -25.5740 C.3   251  VAL251      0.0023
    174  N         -8.8770  -20.1990  -21.6900 N.am  252  ARG252     -0.1977
    175  CA        -9.4590  -20.0100  -20.3420 C.3   252  ARG252      0.1597
    176  C        -10.9570  -19.7680  -20.3440 C.2   252  ARG252      0.2287
    177  O        -11.5870  -19.8770  -19.2900 O.2   252  ARG252     -0.2864
    178  CB        -8.7480  -18.8690  -19.6150 C.3   252  ARG252      0.0334
    179  CG        -7.2670  -19.0970  -19.3610 C.3   252  ARG252      0.0492
    180  CD        -7.0610  -20.2110  -18.2990 C.3   252  ARG252      0.2205
    181  NE        -5.6440  -20.4370  -17.9800 N.pl3 252  ARG252     -0.0865
    182  CZ        -4.8060  -21.1220  -18.7610 C.cat 252  ARG252      0.5346
    183  NH1       -5.2350  -21.6530  -19.9050 N.pl3 252  ARG252      0.1354
    184  NH2       -3.5310  -21.2760  -18.4030 N.pl3 252  ARG252      0.1354
    185  N         -7.1830  -27.7620  -26.9930 N.3   269  ALA269     -0.1245
    186  CA        -6.8910  -28.6180  -25.8260 C.3   269  ALA269      0.1562
    187  C         -6.8190  -27.7900  -24.5800 C.2   269  ALA269      0.2260
    188  O         -6.2900  -26.6970  -24.6010 O.2   269  ALA269     -0.2867
    189  CB        -5.6060  -29.4120  -26.0200 C.3   269  ALA269      0.0290
    190  N         -5.7010  -27.4480  -20.4640 N.3   271  GLY271     -0.1210
    191  CA        -4.5720  -27.8750  -19.6550 C.3   271  GLY271      0.1956
    192  C         -4.7470  -27.4520  -18.2110 C.2   271  GLY271      0.2611
    193  O         -5.4960  -28.0850  -17.4650 O.2   271  GLY271     -0.2717
    194  N         -4.0510  -26.3810  -17.8430 N.am  272  ARG272     -0.1979
    195  CA        -4.0130  -25.9270  -16.4420 C.3   272  ARG272      0.1597
    196  C         -5.3910  -25.8510  -15.7410 C.2   272  ARG272      0.2287
    197  O         -5.5150  -26.3140  -14.6050 O.2   272  ARG272     -0.2864
    198  CB        -3.2670  -24.5930  -16.3030 C.3   272  ARG272      0.0334
    199  CG        -1.7590  -24.6690  -16.5620 C.3   272  ARG272      0.0492
    200  CD        -1.1370  -23.3100  -16.3510 C.3   272  ARG272      0.2205
    201  NE         0.3200  -23.3350  -16.4380 N.pl3 272  ARG272     -0.0865
    202  CZ         1.0240  -22.9820  -17.5100 C.cat 272  ARG272      0.5346
    203  NH1        0.4150  -22.5880  -18.6250 N.pl3 272  ARG272      0.1354
    204  NH2        2.3530  -23.0410  -17.4720 N.pl3 272  ARG272      0.1354
    205  N         -6.4900  -29.2090  -14.5520 N.3   275  LEU275     -0.1245
    206  CA        -5.6500  -29.6310  -13.4220 C.3   275  LEU275      0.1561
    207  C         -5.9980  -28.9010  -12.1380 C.2   275  LEU275      0.2260
    208  O         -5.9840  -29.4970  -11.0470 O.2   275  LEU275     -0.2867
    209  CB        -4.1530  -29.4730  -13.7310 C.3   275  LEU275      0.0270
    210  CG        -3.4660  -30.7140  -14.3220 C.3   275  LEU275      0.0019
    211  CD1       -3.3910  -31.8510  -13.3130 C.3   275  LEU275      0.0001
    212  CD2       -4.1390  -31.1820  -15.6070 C.3   275  LEU275      0.0001
@<TRIPOS>BOND
     1   109   110    1
     2   110   111    1
     3   110   113    1
     4   111   112    2
     5   118   119    1
     6   113   114    1
     7   121   120    2
     8   102   103    1
     9   104   105    2
    10   104   103    1
    11   119   120    1
    12   119   122    1
    13   103   106    1
    14   149   150    1
    15   114   115    1
    16   122   123    1
    17    92    93    2
    18    92    91    1
    19   152   151    2
    20   115   116    1
    21   106   107    1
    22   106   108    1
    23   150   151    1
    24   150   153    1
    25   133   132   ar
    26   133   131   ar
    27   132   130   ar
    28   185   186    1
    29    91    90    1
    30    91    94    1
    31   151   157   am
    32   155   154   ar
    33   153   154    1
    34   116   117    1
    35   154   156   ar
    36    82    83    1
    37    82    81    1
    38    82    85    1
    39   131   129   ar
    40   189   186    1
    41   130   129   ar
    42    83    84    2
    43   186   187    1
    44    94    95    1
    45    86    85    1
    46    86    87    1
    47   173   171    1
    48   162   161    1
    49   157   158    1
    50   161   158    1
    51   124   125    1
    52    36    35    2
    53   129   128    1
    54   160   159    2
    55    96    95   ar
    56    96    98   ar
    57    88    87    2
    58    95    97   ar
    59   158   159    1
    60    33    32    2
    61    87    89   am
    62   188   187    2
    63    48    49    1
    64    48    47    1
    65   159   163   am
    66    49    43    1
    67    31    30    1
    68    31    32    1
    69    31    34    1
    70    98   100   ar
    71    35    34    1
    72    35    37   am
    73   125   128    1
    74   125   126    1
    75   171   172    1
    76   171   168    1
    77    97    99   ar
    78   168   167    1
    79   168   169    1
    80    47    44    1
    81   163   164    1
    82   167   165   am
    83    39    42    1
    84    39    38    1
    85    39    40    1
    86   100    99   ar
    87   100   101    1
    88   134   126   am
    89   134   135    1
    90    43    40   am
    91    43    44    1
    92   165   164    1
    93   165   166    2
    94   126   127    2
    95    40    41    2
    96    44    45    1
    97   135   136    1
    98   169   174   am
    99   169   170    2
   100   174   175    1
   101    46    45    2
   102   136   137    2
   103   138   139    1
   104    45    50   am
   105    64    63    1
   106    64    65    1
   107    64    67    1
   108    65    66    2
   109    21    22    1
   110   140   141    2
   111   140   139    1
   112    24    23    2
   113    80    79    1
   114    22    23    1
   115    22    25    1
   116   190   191    1
   117   139   142    1
   118   176   175    1
   119   176   177    2
   120   175   178    1
   121    50    51    1
   122    67    68    1
   123    79    77   ar
   124    79    78   ar
   125   183   182    1
   126   142   143    1
   127   191   192    1
   128   178   179    1
   129    77    75   ar
   130    78    76   ar
   131   179   180    1
   132    69    70    1
   133    25    26    1
   134   143   144    1
   135    55    57    1
   136    55    54    1
   137    51    54    1
   138    51    52    1
   139   144   145    1
   140    75    74   ar
   141    76    74   ar
   142   182   184    1
   143   182   181    2
   144   203   202    1
   145    26    27    1
   146    74    73    1
   147   180   181    1
   148   192   194   am
   149   192   193    2
   150    54    56    1
   151    52    53    2
   152    52    58   am
   153   145   146    2
   154    70    73    1
   155    70    71    1
   156   194   195    1
   157    58    59    1
   158   202   204    1
   159   202   201    2
   160    27    28    1
   161    71    72    2
   162    62    59    1
   163    59    60    1
   164   146   148    1
   165   146   147    1
   166   199   200    1
   167   199   198    1
   168   195   198    1
   169   195   196    1
   170   201   200    1
   171    28    29    1
   172   196   197    2
   173   212   210    1
   174    60    61    2
   175    12    11    1
   176   205   206    1
   177    16    15    2
   178   210   209    1
   179   210   211    1
   180    11     9   ar
   181    11    10   ar
   182     9     7   ar
   183   209   206    1
   184   206   207    1
   185     4     3    2
   186    10     8   ar
   187    15    14    1
   188     7     6   ar
   189    19    17    1
   190    14    17    1
   191    14    13    1
   192     8     6   ar
   193     3    13   am
   194     3     2    1
   195   207   208    2
   196     6     5    1
   197    17    18    1
   198    18    20    1
   199     2     5    1
   200     2     1    1
