@<TRIPOS>MOLECULE
tmp/2nlrA00.pdb
 129 125 0 0 0
SMALL
GASTEIGER

@<TRIPOS>ATOM
      1  N         26.8230   11.7280   16.4910 N.3     8  PHE8       -0.1241
      2  CA        27.8230   10.7680   15.9720 C.3     8  PHE8        0.1605
      3  C         27.4340    9.3620   16.3360 C.2     8  PHE8        0.2264
      4  O         28.2810    8.4680   16.4170 O.2     8  PHE8       -0.2867
      5  CB        29.2150   11.1980   16.3870 C.3     8  PHE8        0.0534
      6  CG        29.6770   12.4410   15.7360 C.ar    8  PHE8       -0.0203
      7  CD1       29.8090   12.5380   14.3710 C.ar    8  PHE8       -0.0042
      8  CD2       30.0170   13.5540   16.4410 C.ar    8  PHE8       -0.0042
      9  CE1       30.2590   13.6720   13.7560 C.ar    8  PHE8       -0.0003
     10  CE2       30.4710   14.6990   15.8360 C.ar    8  PHE8       -0.0003
     11  CZ        30.5680   14.7680   14.4830 C.ar    8  PHE8       -0.0000
     12  N         25.9700    5.5580    9.8960 N.3    20  GLN20      -0.1245
     13  CA        26.3930    6.6790   10.7290 C.3    20  GLN20       0.1566
     14  C         25.5000    7.8960   10.5050 C.2    20  GLN20       0.2260
     15  O         25.2540    8.2970    9.3710 O.2    20  GLN20      -0.2867
     16  CB        27.8690    7.0450   10.5040 C.3    20  GLN20       0.0367
     17  CG        28.2610    7.3850    9.0680 C.3    20  GLN20       0.0905
     18  CD        29.7010    7.7300    8.9470 C.2    20  GLN20       0.2608
     19  OE1       30.4480    7.8600    9.9140 O.2    20  GLN20      -0.2717
     20  NE2       30.1420    7.9090    7.7060 N.am   20  GLN20      -0.0878
     21  N         26.3880   10.9280   11.6250 N.3    22  ASN22      -0.1240
     22  CA        27.4930   11.7650   11.1510 C.3    22  ASN22       0.1653
     23  C         27.0820   13.1970   10.9310 C.2    22  ASN22       0.2266
     24  O         27.3030   13.8010    9.8790 O.2    22  ASN22      -0.2867
     25  CB        28.1380   11.1300    9.9270 C.3    22  ASN22       0.1155
     26  CG        29.4680   11.6940    9.5740 C.2    22  ASN22       0.2627
     27  OD1       30.2250   12.1590   10.4410 O.2    22  ASN22      -0.2716
     28  ND2       29.7900   11.6210    8.2800 N.am   22  ASN22      -0.0877
     29  N         28.0150   16.2220   11.4010 N.3    24  TRP24      -0.1241
     30  CA        29.2410   16.9180   11.7400 C.3    24  TRP24       0.1605
     31  C         29.1900   18.4390   11.5280 C.2    24  TRP24       0.2264
     32  O         30.0950   19.1340   12.0200 O.2    24  TRP24      -0.2867
     33  CB        30.3680   16.3630   10.9250 C.3    24  TRP24       0.0550
     34  CG        30.3620   16.5440    9.4200 C.ar   24  TRP24       0.0003
     35  CD1       29.8520   15.6650    8.5020 C.ar   24  TRP24       0.0946
     36  CD2       30.9260   17.6380    8.6880 C.ar   24  TRP24       0.0152
     37  NE1       30.0550   16.1620    7.2460 N.ar   24  TRP24      -0.2442
     38  CE2       30.7190   17.3650    7.3280 C.ar   24  TRP24       0.0810
     39  CE3       31.5710   18.7730    9.0660 C.ar   24  TRP24       0.0012
     40  CZ2       31.1510   18.2240    6.3470 C.ar   24  TRP24       0.0191
     41  CZ3       31.9910   19.6070    8.1110 C.ar   24  TRP24       0.0001
     42  CH2       31.7880   19.3400    6.7390 C.ar   24  TRP24       0.0015
     43  N         26.7890   14.2040    6.9170 N.3    57  TYR57      -0.1241
     44  CA        26.9380   13.1630    5.8940 C.3    57  TYR57       0.1605
     45  C         26.4470   11.8320    6.4540 C.2    57  TYR57       0.2264
     46  O         27.2130   10.8900    6.7130 O.2    57  TYR57      -0.2867
     47  CB        28.3570   13.0550    5.3460 C.3    57  TYR57       0.0534
     48  CG        28.5540   12.0410    4.2840 C.ar   57  TYR57      -0.0201
     49  CD1       27.8690   12.1040    3.0860 C.ar   57  TYR57      -0.0009
     50  CD2       29.4440   10.9630    4.4500 C.ar   57  TYR57      -0.0009
     51  CE1       28.0550   11.1610    2.0820 C.ar   57  TYR57       0.0417
     52  CE2       29.6290   10.0190    3.4790 C.ar   57  TYR57       0.0417
     53  CZ        28.9300   10.1090    2.2940 C.ar   57  TYR57       0.1957
     54  OH        29.1560    9.1420    1.3280 O.3    57  TYR57      -0.2866
     55  N         36.5420    4.4840    9.5800 N.3    65  HIS65      -0.1226
     56  CA        36.2640    5.9300    9.5880 C.3    65  HIS65       0.1752
     57  C         36.4170    6.3830   11.0540 C.2    65  HIS65       0.2596
     58  O         35.5610    5.9930   11.8950 O.2    65  HIS65      -0.2718
     59  CB        34.9020    6.2280    9.0410 C.3    65  HIS65       0.0759
     60  CG        34.5700    7.6690    8.7980 C.ar   65  HIS65       0.0818
     61  ND1       35.2860    8.4320    7.8760 N.ar   65  HIS65      -0.2268
     62  CD2       33.6070    8.4680    9.3660 C.ar   65  HIS65       0.1154
     63  CE1       34.7720    9.6290    7.8790 C.ar   65  HIS65       0.1986
     64  NE2       33.7720    9.6940    8.7570 N.ar   65  HIS65      -0.2212
     65  N         37.4460    7.1540   11.3550 N.am   66  TYR66      -0.1976
     66  CA        37.6320    7.6960   12.7130 C.3    66  TYR66       0.1639
     67  C         37.5150    6.6030   13.7830 C.2    66  TYR66       0.2290
     68  O         36.8000    6.7900   14.7800 O.2    66  TYR66      -0.2864
     69  CB        36.6750    8.8770   12.9640 C.3    66  TYR66       0.0560
     70  CG        37.0030   10.0590   12.1020 C.ar   66  TYR66      -0.0198
     71  CD1       36.5570   10.2340   10.8330 C.ar   66  TYR66      -0.0009
     72  CD2       37.8530   11.0320   12.6150 C.ar   66  TYR66      -0.0009
     73  CE1       36.9150   11.3420   10.0860 C.ar   66  TYR66       0.0417
     74  CE2       38.1960   12.1480   11.8670 C.ar   66  TYR66       0.0417
     75  CZ        37.7140   12.2920   10.6000 C.ar   66  TYR66       0.1957
     76  OH        38.0650   13.3780    9.8860 O.3    66  TYR66      -0.2866
     77  N         31.6250    8.7380   -0.7890 N.3   104  ASP104     -0.1239
     78  CA        32.8530    9.2740   -0.2260 C.3   104  ASP104      0.1674
     79  C         33.8430    8.1180   -0.1420 C.2   104  ASP104      0.2266
     80  O         33.6290    7.2210    0.6860 O.2   104  ASP104     -0.2867
     81  CB        32.5510    9.9150    1.1070 C.3   104  ASP104      0.1410
     82  CG        33.2930   11.1980    1.4460 C.2   104  ASP104      0.3668
     83  OD1       33.8620   11.7450    0.4740 O.co2 104  ASP104     -0.2456
     84  OD2       33.2650   11.6610    2.6020 O.co2 104  ASP104     -0.2456
     85  N         37.7750    7.0320    0.4130 N.3   106  TRP106     -0.1241
     86  CA        38.9540    7.6210    1.0520 C.3   106  TRP106      0.1605
     87  C         40.2010    6.8010    0.7760 C.2   106  TRP106      0.2264
     88  O         40.1980    5.5690    0.9420 O.2   106  TRP106     -0.2867
     89  CB        38.6700    7.7520    2.5150 C.3   106  TRP106      0.0550
     90  CG        37.6590    8.7500    2.9560 C.ar  106  TRP106      0.0003
     91  CD1       36.3700    8.5170    3.3140 C.ar  106  TRP106      0.0946
     92  CD2       37.8740   10.1640    3.1020 C.ar  106  TRP106      0.0152
     93  NE1       35.7610    9.6900    3.6770 N.ar  106  TRP106     -0.2442
     94  CE2       36.6760   10.7160    3.5760 C.ar  106  TRP106      0.0810
     95  CE3       38.9440   11.0130    2.9080 C.ar  106  TRP106      0.0012
     96  CZ2       36.5210   12.0680    3.8510 C.ar  106  TRP106      0.0191
     97  CZ3       38.8110   12.3480    3.2010 C.ar  106  TRP106      0.0001
     98  CH2       37.6080   12.8610    3.6690 C.ar  106  TRP106      0.0015
     99  N         42.0100   12.2040    9.3640 N.3   116  VAL116     -0.1245
    100  CA        41.7290   12.6610    8.0060 C.3   116  VAL116      0.1561
    101  C         42.5920   11.9250    7.0080 C.2   116  VAL116      0.2260
    102  O         43.8030   11.9170    7.0930 O.2   116  VAL116     -0.2867
    103  CB        41.9970   14.1780    7.8570 C.3   116  VAL116      0.0252
    104  CG1       41.7690   14.6110    6.4240 C.3   116  VAL116      0.0019
    105  CG2       41.1090   15.0070    8.7880 C.3   116  VAL116      0.0019
    106  N         40.1940   12.3750   -0.9570 N.3   120  GLU120     -0.1245
    107  CA        38.7860   12.0460   -0.9340 C.3   120  GLU120      0.1567
    108  C         38.2550   12.0340   -2.3520 C.2   120  GLU120      0.2260
    109  O         38.4040   13.0260   -3.0760 O.2   120  GLU120     -0.2867
    110  CB        38.1260   13.1420   -0.1160 C.3   120  GLU120      0.0388
    111  CG        36.6720   12.8160    0.2420 C.3   120  GLU120      0.1160
    112  CD        36.0540   14.0550    0.8280 C.2   120  GLU120      0.3649
    113  OE1       36.7890   15.0010    1.0920 O.co2 120  GLU120     -0.2457
    114  OE2       34.8040   14.0800    0.9690 O.co2 120  GLU120     -0.2457
    115  N         41.9190   20.2220    4.8260 N.3   157  SER157     -0.1217
    116  CA        42.3330   19.0060    5.4970 C.3   157  SER157      0.1889
    117  C         42.9170   17.9930    4.5030 C.2   157  SER157      0.2288
    118  O         43.8830   17.3110    4.8070 O.2   157  SER157     -0.2866
    119  CB        41.1790   18.3310    6.2660 C.3   157  SER157      0.2089
    120  OG        40.6160   19.2350    7.1600 O.3   157  SER157     -0.2183
    121  N         32.0270    4.7610    1.3300 N.3   199  GLN199     -0.1245
    122  CA        30.8580    5.2440    2.0250 C.3   199  GLN199      0.1566
    123  C         29.8400    5.7410    1.0080 C.2   199  GLN199      0.2260
    124  O         30.2240    6.3250    0.0010 O.2   199  GLN199     -0.2867
    125  CB        31.1990    6.4010    2.9810 C.3   199  GLN199      0.0367
    126  CG        32.5270    6.2570    3.7120 C.3   199  GLN199      0.0905
    127  CD        32.7680    7.1950    4.8190 C.2   199  GLN199      0.2608
    128  OE1       31.9640    8.0620    5.1560 O.2   199  GLN199     -0.2717
    129  NE2       33.9500    7.0830    5.3890 N.am  199  GLN199     -0.0878
@<TRIPOS>BOND
     1   109   108    2
     2   108   107    1
     3   106   107    1
     4   107   110    1
     5    77    78    1
     6    78    79    1
     7    78    81    1
     8    79    80    2
     9   110   111    1
    10   124   123    2
    11   111   112    1
    12    85    86    1
    13    83    82   ar
    14    87    88    2
    15    87    86    1
    16   112   114   ar
    17   112   113   ar
    18   123   122    1
    19    86    89    1
    20    81    82    1
    21    54    53    1
    22   121   122    1
    23    82    84   ar
    24   122   125    1
    25    51    53   ar
    26    51    49   ar
    27    53    52   ar
    28    89    90    1
    29    95    92   ar
    30    95    97   ar
    31    90    92   ar
    32    90    91   ar
    33   125   126    1
    34    49    48   ar
    35    92    94   ar
    36    97    98   ar
    37    91    93   ar
    38    52    50   ar
    39    94    93   ar
    40    94    96   ar
    41    98    96   ar
    42   126   127    1
    43    48    50   ar
    44    48    47    1
    45   117   118    2
    46   117   116    1
    47   127   128    2
    48   127   129   am
    49   115   116    1
    50    47    44    1
    51   116   119    1
    52    44    45    1
    53    44    43    1
    54   119   120    1
    55    40    42   ar
    56    40    38   ar
    57   104   103    1
    58    45    46    2
    59    42    41   ar
    60   101   102    2
    61   101   100    1
    62    37    38   ar
    63    37    35   ar
    64    38    36   ar
    65    20    18   am
    66   103   100    1
    67   103   105    1
    68    61    63   ar
    69    61    60   ar
    70    63    64   ar
    71   100    99    1
    72    41    39   ar
    73    28    26   am
    74    35    34   ar
    75    36    39   ar
    76    36    34   ar
    77    64    62   ar
    78    60    59    1
    79    60    62   ar
    80    18    17    1
    81    18    19    2
    82    59    56    1
    83    17    16    1
    84    15    14    2
    85    34    33    1
    86    26    25    1
    87    26    27    2
    88    55    56    1
    89    56    57    1
    90    24    23    2
    91    76    75    1
    92    12    13    1
    93    25    22    1
    94    73    75   ar
    95    73    71   ar
    96    16    13    1
    97    14    13    1
    98    75    74   ar
    99    71    70   ar
   100    33    30    1
   101    23    22    1
   102    57    65   am
   103    57    58    2
   104    22    21    1
   105    65    66    1
   106    29    30    1
   107    31    30    1
   108    31    32    2
   109    74    72   ar
   110    70    72   ar
   111    70    69    1
   112    66    69    1
   113    66    67    1
   114     9     7   ar
   115     9    11   ar
   116    67    68    2
   117     7     6   ar
   118    11    10   ar
   119     6     5    1
   120     6     8   ar
   121    10     8   ar
   122     2     3    1
   123     2     5    1
   124     2     1    1
   125     3     4    2
