@<TRIPOS>MOLECULE
tmp/2nlrA01.pdb
 130 123 0 0 0
SMALL
GASTEIGER

@<TRIPOS>ATOM
      1  N         26.3880   10.9280   11.6250 N.3    22  ASN22      -0.1240
      2  CA        27.4930   11.7650   11.1510 C.3    22  ASN22       0.1653
      3  C         27.0820   13.1970   10.9310 C.2    22  ASN22       0.2266
      4  O         27.3030   13.8010    9.8790 O.2    22  ASN22      -0.2867
      5  CB        28.1380   11.1300    9.9270 C.3    22  ASN22       0.1155
      6  CG        29.4680   11.6940    9.5740 C.2    22  ASN22       0.2627
      7  OD1       30.2250   12.1590   10.4410 O.2    22  ASN22      -0.2716
      8  ND2       29.7900   11.6210    8.2800 N.am   22  ASN22      -0.0877
      9  N         28.0150   16.2220   11.4010 N.3    24  TRP24      -0.1241
     10  CA        29.2410   16.9180   11.7400 C.3    24  TRP24       0.1605
     11  C         29.1900   18.4390   11.5280 C.2    24  TRP24       0.2264
     12  O         30.0950   19.1340   12.0200 O.2    24  TRP24      -0.2867
     13  CB        30.3680   16.3630   10.9250 C.3    24  TRP24       0.0550
     14  CG        30.3620   16.5440    9.4200 C.ar   24  TRP24       0.0003
     15  CD1       29.8520   15.6650    8.5020 C.ar   24  TRP24       0.0946
     16  CD2       30.9260   17.6380    8.6880 C.ar   24  TRP24       0.0152
     17  NE1       30.0550   16.1620    7.2460 N.ar   24  TRP24      -0.2442
     18  CE2       30.7190   17.3650    7.3280 C.ar   24  TRP24       0.0810
     19  CE3       31.5710   18.7730    9.0660 C.ar   24  TRP24       0.0012
     20  CZ2       31.1510   18.2240    6.3470 C.ar   24  TRP24       0.0191
     21  CZ3       31.9910   19.6070    8.1110 C.ar   24  TRP24       0.0001
     22  CH2       31.7880   19.3400    6.7390 C.ar   24  TRP24       0.0015
     23  N         28.0180   21.2580    4.3780 N.3    54  PRO54      -0.2116
     24  CA        26.6590   20.7740    4.5990 C.3    54  PRO54       0.1372
     25  C         26.4180   20.5480    6.0830 C.2    54  PRO54       0.2244
     26  O         27.3060   20.7150    6.9220 O.2    54  PRO54      -0.2868
     27  CB        26.6680   19.4340    3.8430 C.3    54  PRO54       0.0268
     28  CG        28.1030   18.9850    4.0810 C.3    54  PRO54       0.0207
     29  CD        28.9100   20.2300    3.8680 C.3    54  PRO54       0.0892
     30  N         26.7890   14.2040    6.9170 N.3    57  TYR57      -0.1241
     31  CA        26.9380   13.1630    5.8940 C.3    57  TYR57       0.1605
     32  C         26.4470   11.8320    6.4540 C.2    57  TYR57       0.2264
     33  O         27.2130   10.8900    6.7130 O.2    57  TYR57      -0.2867
     34  CB        28.3570   13.0550    5.3460 C.3    57  TYR57       0.0534
     35  CG        28.5540   12.0410    4.2840 C.ar   57  TYR57      -0.0201
     36  CD1       27.8690   12.1040    3.0860 C.ar   57  TYR57      -0.0009
     37  CD2       29.4440   10.9630    4.4500 C.ar   57  TYR57      -0.0009
     38  CE1       28.0550   11.1610    2.0820 C.ar   57  TYR57       0.0417
     39  CE2       29.6290   10.0190    3.4790 C.ar   57  TYR57       0.0417
     40  CZ        28.9300   10.1090    2.2940 C.ar   57  TYR57       0.1957
     41  OH        29.1560    9.1420    1.3280 O.3    57  TYR57      -0.2866
     42  N         36.5420    4.4840    9.5800 N.3    65  HIS65      -0.1241
     43  CA        36.2640    5.9300    9.5880 C.3    65  HIS65       0.1621
     44  C         36.4170    6.3830   11.0540 C.2    65  HIS65       0.2264
     45  O         35.5610    5.9930   11.8950 O.2    65  HIS65      -0.2867
     46  CB        34.9020    6.2280    9.0410 C.3    65  HIS65       0.0745
     47  CG        34.5700    7.6690    8.7980 C.ar   65  HIS65       0.0817
     48  ND1       35.2860    8.4320    7.8760 N.ar   65  HIS65      -0.2268
     49  CD2       33.6070    8.4680    9.3660 C.ar   65  HIS65       0.1154
     50  CE1       34.7720    9.6290    7.8790 C.ar   65  HIS65       0.1986
     51  NE2       33.7720    9.6940    8.7570 N.ar   65  HIS65      -0.2212
     52  N         31.6250    8.7380   -0.7890 N.3   104  ASP104     -0.1239
     53  CA        32.8530    9.2740   -0.2260 C.3   104  ASP104      0.1674
     54  C         33.8430    8.1180   -0.1420 C.2   104  ASP104      0.2266
     55  O         33.6290    7.2210    0.6860 O.2   104  ASP104     -0.2867
     56  CB        32.5510    9.9150    1.1070 C.3   104  ASP104      0.1410
     57  CG        33.2930   11.1980    1.4460 C.2   104  ASP104      0.3668
     58  OD1       33.8620   11.7450    0.4740 O.co2 104  ASP104     -0.2456
     59  OD2       33.2650   11.6610    2.6020 O.co2 104  ASP104     -0.2456
     60  N         37.7750    7.0320    0.4130 N.3   106  TRP106     -0.1241
     61  CA        38.9540    7.6210    1.0520 C.3   106  TRP106      0.1605
     62  C         40.2010    6.8010    0.7760 C.2   106  TRP106      0.2264
     63  O         40.1980    5.5690    0.9420 O.2   106  TRP106     -0.2867
     64  CB        38.6700    7.7520    2.5150 C.3   106  TRP106      0.0550
     65  CG        37.6590    8.7500    2.9560 C.ar  106  TRP106      0.0003
     66  CD1       36.3700    8.5170    3.3140 C.ar  106  TRP106      0.0946
     67  CD2       37.8740   10.1640    3.1020 C.ar  106  TRP106      0.0152
     68  NE1       35.7610    9.6900    3.6770 N.ar  106  TRP106     -0.2442
     69  CE2       36.6760   10.7160    3.5760 C.ar  106  TRP106      0.0810
     70  CE3       38.9440   11.0130    2.9080 C.ar  106  TRP106      0.0012
     71  CZ2       36.5210   12.0680    3.8510 C.ar  106  TRP106      0.0191
     72  CZ3       38.8110   12.3480    3.2010 C.ar  106  TRP106      0.0001
     73  CH2       37.6080   12.8610    3.6690 C.ar  106  TRP106      0.0015
     74  N         40.1940   12.3750   -0.9570 N.3   120  GLU120     -0.1245
     75  CA        38.7860   12.0460   -0.9340 C.3   120  GLU120      0.1567
     76  C         38.2550   12.0340   -2.3520 C.2   120  GLU120      0.2260
     77  O         38.4040   13.0260   -3.0760 O.2   120  GLU120     -0.2867
     78  CB        38.1260   13.1420   -0.1160 C.3   120  GLU120      0.0388
     79  CG        36.6720   12.8160    0.2420 C.3   120  GLU120      0.1160
     80  CD        36.0540   14.0550    0.8280 C.2   120  GLU120      0.3649
     81  OE1       36.7890   15.0010    1.0920 O.co2 120  GLU120     -0.2457
     82  OE2       34.8040   14.0800    0.9690 O.co2 120  GLU120     -0.2457
     83  N         34.7850   11.9430   -4.2360 N.3   122  MET122     -0.1245
     84  CA        33.3500   12.0860   -4.1270 C.3   122  MET122      0.1570
     85  C         32.7070   11.7050   -5.4570 C.2   122  MET122      0.2261
     86  O         33.2060   12.0910   -6.5110 O.2   122  MET122     -0.2867
     87  CB        32.8550   13.5000   -3.7270 C.3   122  MET122      0.0387
     88  CG        33.3420   13.7540   -2.2890 C.3   122  MET122      0.0595
     89  SD        32.4750   15.0770   -1.4380 S.3   122  MET122     -0.1393
     90  CE        30.8120   14.6140   -1.6510 C.3   122  MET122      0.0692
     91  N         33.4500   21.1020   -3.8260 N.3   134  ILE134     -0.1245
     92  CA        34.6820   21.7520   -3.4020 C.3   134  ILE134      0.1561
     93  C         35.5650   22.0610   -4.5910 C.2   134  ILE134      0.2260
     94  O         35.7930   21.2480   -5.4790 O.2   134  ILE134     -0.2867
     95  CB        35.3520   20.8360   -2.3510 C.3   134  ILE134      0.0252
     96  CG1       34.5780   20.7210   -1.0340 C.3   134  ILE134      0.0019
     97  CG2       36.7550   21.3370   -2.1810 C.3   134  ILE134      0.0019
     98  CD1       34.9490   19.7020    0.0040 C.3   134  ILE134      0.0001
     99  N         39.9170   21.0370    0.9370 N.3   155  ASN155     -0.1240
    100  CA        39.0510   21.5570    2.0220 C.3   155  ASN155      0.1653
    101  C         39.8640   22.0640    3.1800 C.2   155  ASN155      0.2266
    102  O         39.2120   22.4140    4.1680 O.2   155  ASN155     -0.2867
    103  CB        38.0250   20.5060    2.4510 C.3   155  ASN155      0.1155
    104  CG        38.6770   19.2920    2.9850 C.2   155  ASN155      0.2627
    105  OD1       39.8890   19.2950    3.2200 O.2   155  ASN155     -0.2716
    106  ND2       37.9410   18.2640    3.2190 N.am  155  ASN155     -0.0877
    107  N         42.2900   17.8760    3.3540 N.3   158  ASN158     -0.1240
    108  CA        42.5890   16.8150    2.3960 C.3   158  ASN158      0.1653
    109  C         42.3170   17.2780    0.9550 C.2   158  ASN158      0.2266
    110  O         41.6720   18.3410    0.7920 O.2   158  ASN158     -0.2867
    111  CB        41.7750   15.5360    2.7210 C.3   158  ASN158      0.1155
    112  CG        40.2910   15.8210    2.8190 C.2   158  ASN158      0.2627
    113  OD1       39.7290   16.1040    3.8900 O.2   158  ASN158     -0.2716
    114  ND2       39.5360   15.7020    1.7130 N.am  158  ASN158     -0.0877
    115  N         40.2980   16.7980   -2.5610 N.3   160  VAL160     -0.1245
    116  CA        38.9760   16.3590   -2.9280 C.3   160  VAL160      0.1561
    117  C         38.8480   16.3090   -4.4450 C.2   160  VAL160      0.2260
    118  O         38.9590   17.3480   -5.1100 O.2   160  VAL160     -0.2867
    119  CB        37.9010   17.2970   -2.3690 C.3   160  VAL160      0.0252
    120  CG1       36.5450   16.7160   -2.6740 C.3   160  VAL160      0.0019
    121  CG2       38.1350   17.5420   -0.8510 C.3   160  VAL160      0.0019
    122  N         24.6880   14.4280    1.5240 N.3   203  GLU203     -0.1245
    123  CA        25.0530   15.7230    2.1850 C.3   203  GLU203      0.1567
    124  C         23.8470   16.6510    2.0980 C.2   203  GLU203      0.2260
    125  O         23.6280   17.1650    0.9970 O.2   203  GLU203     -0.2867
    126  CB        26.2900   16.3710    1.5660 C.3   203  GLU203      0.0388
    127  CG        27.5800   15.5840    1.7600 C.3   203  GLU203      0.1160
    128  CD        28.7630   16.3830    1.2310 C.2   203  GLU203      0.3649
    129  OE1       28.8180   16.7830    0.0590 O.co2 203  GLU203     -0.2457
    130  OE2       29.6820   16.6690    1.9940 O.co2 203  GLU203     -0.2457
@<TRIPOS>BOND
     1    86    85    2
     2    94    93    2
     3    85    84    1
     4   118   117    2
     5    93    92    1
     6   117   116    1
     7    83    84    1
     8    84    87    1
     9    91    92    1
    10    87    88    1
    11    92    95    1
    12    77    76    2
    13   116   115    1
    14   116   119    1
    15   120   119    1
    16   119   121    1
    17    76    75    1
    18    95    97    1
    19    95    96    1
    20    88    89    1
    21    90    89    1
    22    96    98    1
    23    74    75    1
    24    75    78    1
    25    52    53    1
    26    53    54    1
    27    53    56    1
    28    54    55    2
    29    78    79    1
    30   129   128   ar
    31    79    80    1
    32    60    61    1
    33    58    57   ar
    34    62    63    2
    35    62    61    1
    36   110   109    2
    37    80    82   ar
    38    80    81   ar
    39    99   100    1
    40   109   108    1
    41   125   124    2
    42    61    64    1
    43    56    57    1
    44   128   127    1
    45   128   130   ar
    46    41    40    1
    47    57    59   ar
    48   122   123    1
    49   126   127    1
    50   126   123    1
    51   114   112   am
    52   100   103    1
    53   100   101    1
    54    38    40   ar
    55    38    36   ar
    56   124   123    1
    57    40    39   ar
    58   108   111    1
    59   108   107    1
    60   103   104    1
    61    64    65    1
    62   111   112    1
    63   112   113    2
    64    70    67   ar
    65    70    72   ar
    66    65    67   ar
    67    65    66   ar
    68   104   106   am
    69   104   105    2
    70    36    35   ar
    71    67    69   ar
    72   101   102    2
    73    72    73   ar
    74    66    68   ar
    75    39    37   ar
    76    69    68   ar
    77    69    71   ar
    78    73    71   ar
    79    27    28    1
    80    27    24    1
    81    29    28    1
    82    29    23    1
    83    35    37   ar
    84    35    34    1
    85    23    24    1
    86    24    25    1
    87    34    31    1
    88    31    32    1
    89    31    30    1
    90    25    26    2
    91    20    22   ar
    92    20    18   ar
    93    32    33    2
    94    22    21   ar
    95    17    18   ar
    96    17    15   ar
    97    18    16   ar
    98    48    50   ar
    99    48    47   ar
   100    50    51   ar
   101    21    19   ar
   102     8     6   am
   103    15    14   ar
   104    16    19   ar
   105    16    14   ar
   106    51    49   ar
   107    47    46    1
   108    47    49   ar
   109    46    43    1
   110    14    13    1
   111     6     5    1
   112     6     7    2
   113    42    43    1
   114    43    44    1
   115     4     3    2
   116     5     2    1
   117    13    10    1
   118     3     2    1
   119    44    45    2
   120     2     1    1
   121     9    10    1
   122    11    10    1
   123    11    12    2
