@<TRIPOS>MOLECULE
tmp/2nm3A00.pdb
 105 100 0 0 0
SMALL
GASTEIGER

@<TRIPOS>ATOM
      1  N         46.3010   52.6340   72.2300 N.3    17  GLY17      -0.1210
      2  CA        47.3580   51.6490   72.3360 C.3    17  GLY17       0.1956
      3  C         48.7260   52.2100   72.6470 C.2    17  GLY17       0.2612
      4  O         49.0240   53.3500   72.2940 O.2    17  GLY17      -0.2717
      5  N         49.5010   51.3540   73.2980 N.am   18  ALA18      -0.1965
      6  CA        50.8810   51.6050   73.6710 C.3    18  ALA18       0.1728
      7  C         51.7370   51.9960   72.4710 C.2    18  ALA18       0.2616
      8  O         52.3530   53.0630   72.4280 O.2    18  ALA18      -0.2715
      9  CB        51.4360   50.3670   74.3700 C.3    18  ALA18       0.0334
     10  N         51.8010   51.1290   71.4670 N.am   19  LEU19      -0.1977
     11  CA        52.6300   51.3990   70.2890 C.3    19  LEU19       0.1596
     12  C         52.1340   52.6150   69.5220 C.2    19  LEU19       0.2287
     13  O         50.9220   52.8220   69.3970 O.2    19  LEU19      -0.2864
     14  CB        52.6400   50.1330   69.4300 C.3    19  LEU19       0.0297
     15  CG        54.0160   49.5860   69.0300 C.3    19  LEU19       0.0022
     16  CD1       53.9250   48.1220   68.6320 C.3    19  LEU19       0.0001
     17  CD2       54.6130   50.4260   67.9100 C.3    19  LEU19       0.0001
     18  N         50.5970   51.8770   66.1320 N.3    22  GLU22      -0.1245
     19  CA        49.2860   51.3800   66.5280 C.3    22  GLU22       0.1567
     20  C         48.2970   52.5350   66.6580 C.2    22  GLU22       0.2260
     21  O         47.1550   52.4210   66.2080 O.2    22  GLU22      -0.2867
     22  CB        49.4040   50.5950   67.8310 C.3    22  GLU22       0.0388
     23  CG        48.2110   49.7680   68.2330 C.3    22  GLU22       0.1160
     24  CD        48.4970   48.8810   69.4450 C.2    22  GLU22       0.3649
     25  OE1       49.3300   49.2720   70.2950 O.co2  22  GLU22      -0.2457
     26  OE2       47.8730   47.8020   69.5560 O.co2  22  GLU22      -0.2457
     27  N         46.4930   54.7330   76.1730 N.3    71  ASN71      -0.1225
     28  CA        47.4730   53.6610   76.0470 C.3    71  ASN71       0.1785
     29  C         46.8980   52.2640   76.2590 C.2    71  ASN71       0.2597
     30  O         47.1470   51.3710   75.4330 O.2    71  ASN71      -0.2718
     31  CB        48.6350   53.8730   77.0340 C.3    71  ASN71       0.1169
     32  CG        49.5470   55.0080   76.6480 C.2    71  ASN71       0.2627
     33  OD1       50.3030   55.5050   77.4800 O.2    71  ASN71      -0.2716
     34  ND2       49.4950   55.4210   75.3910 N.am   71  ASN71      -0.0877
     35  N         46.1600   52.0550   77.3510 N.am   72  LEU72      -0.1966
     36  CA        45.7910   50.7170   77.7940 C.3    72  LEU72       0.1728
     37  C         44.2980   50.4130   77.7420 C.2    72  LEU72       0.2616
     38  O         43.4240   51.2470   77.9520 O.2    72  LEU72      -0.2715
     39  CB        46.2900   50.4560   79.2310 C.3    72  LEU72       0.0311
     40  CG        47.7530   50.8400   79.5230 C.3    72  LEU72       0.0022
     41  CD1       48.1500   50.4160   80.9330 C.3    72  LEU72       0.0001
     42  CD2       48.6600   50.1740   78.5110 C.3    72  LEU72       0.0001
     43  N         44.0140   49.1300   77.4580 N.am   73  LEU73      -0.1963
     44  CA        42.6610   48.6250   77.5610 C.3    73  LEU73       0.1728
     45  C         42.2010   48.7670   79.0180 C.2    73  LEU73       0.2616
     46  O         41.0380   49.0530   79.2400 O.2    73  LEU73      -0.2715
     47  CB        42.5230   47.1650   77.1310 C.3    73  LEU73       0.0311
     48  CG        43.0320   46.9050   75.7050 C.3    73  LEU73       0.0022
     49  CD1       43.1130   45.4120   75.4430 C.3    73  LEU73       0.0001
     50  CD2       42.1260   47.6030   74.7060 C.3    73  LEU73       0.0001
     51  N         43.1370   48.5730   79.9390 N.am   74  GLU74      -0.1977
     52  CA        42.7750   48.6930   81.3650 C.3    74  GLU74       0.1602
     53  C         42.1730   50.0570   81.6330 C.2    74  GLU74       0.2287
     54  O         41.1420   50.1790   82.2970 O.2    74  GLU74      -0.2864
     55  CB        44.0170   48.4290   82.2090 C.3    74  GLU74       0.0415
     56  CG        44.4120   46.9710   82.3280 C.3    74  GLU74       0.1163
     57  CD        45.3120   46.4720   81.2160 C.2    74  GLU74       0.3649
     58  OE1       45.2240   47.0450   80.1080 O.co2  74  GLU74      -0.2457
     59  OE2       46.0980   45.5200   81.4280 O.co2  74  GLU74      -0.2457
     60  N         41.0520   43.0480   71.6600 N.3   100  LYS100     -0.1245
     61  CA        41.7040   43.3350   70.3910 C.3   100  LYS100      0.1561
     62  C         41.8680   41.9940   69.6880 C.2   100  LYS100      0.2260
     63  O         42.6790   41.1350   70.0080 O.2   100  LYS100     -0.2867
     64  CB        43.0400   44.0360   70.5460 C.3   100  LYS100      0.0271
     65  CG        42.9970   45.4610   71.0540 C.3   100  LYS100      0.0035
     66  CD        44.4140   46.0230   71.1330 C.3   100  LYS100      0.0206
     67  CE        44.4310   47.4280   71.7230 C.3   100  LYS100      0.1093
     68  NZ        45.8250   47.9400   71.9630 N.3   100  LYS100     -0.1314
     69  N         45.6310   42.8500   67.2490 N.3   103  PRO103     -0.2103
     70  CA        46.6530   43.7860   67.7320 C.3   103  PRO103      0.1489
     71  C         47.9560   43.5060   66.9630 C.2   103  PRO103      0.2418
     72  O         48.0350   42.5360   66.2080 O.2   103  PRO103     -0.2734
     73  CB        46.8220   43.3410   69.1600 C.3   103  PRO103      0.0282
     74  CG        46.6730   41.8690   69.0980 C.3   103  PRO103      0.0208
     75  CD        45.4630   41.7340   68.2090 C.3   103  PRO103      0.0893
     76  N         48.9980   44.3340   67.1750 N.am  104  PRO104     -0.2718
     77  CA        50.3040   44.1920   66.5080 C.3   104  PRO104      0.1535
     78  C         51.1600   43.0470   67.0300 C.2   104  PRO104      0.2598
     79  O         52.3730   43.2050   67.1840 O.2   104  PRO104     -0.2715
     80  CB        50.9830   45.5410   66.7720 C.3   104  PRO104      0.0310
     81  CG        49.8310   46.4830   67.0360 C.3   104  PRO104      0.0237
     82  CD        48.9270   45.6250   67.8790 C.3   104  PRO104      0.0939
     83  N         50.5650   41.8840   67.2570 N.am  105  ILE105     -0.1978
     84  CA        51.3200   40.7380   67.7320 C.3   105  ILE105      0.1596
     85  C         51.4270   39.6520   66.6700 C.2   105  ILE105      0.2287
     86  O         50.4330   39.0170   66.3200 O.2   105  ILE105     -0.2864
     87  CB        50.6500   40.1300   68.9790 C.3   105  ILE105      0.0276
     88  CG1       50.4960   41.1340   70.1250 C.3   105  ILE105      0.0022
     89  CG2       51.3760   38.8770   69.4300 C.3   105  ILE105      0.0022
     90  CD1       49.6000   40.6110   71.2360 C.3   105  ILE105      0.0001
     91  N         42.9850   39.2140   72.2390 N.3   112  VAL112     -0.1245
     92  CA        43.6730   39.4090   73.5200 C.3   112  VAL112      0.1561
     93  C         42.9410   40.5720   74.1500 C.2   112  VAL112      0.2260
     94  O         42.4520   41.4740   73.4740 O.2   112  VAL112     -0.2867
     95  CB        45.1730   39.7150   73.4940 C.3   112  VAL112      0.0252
     96  CG1       45.9570   38.5880   72.8410 C.3   112  VAL112      0.0019
     97  CG2       45.4450   41.0510   72.8000 C.3   112  VAL112      0.0019
     98  N         41.3010   42.4140   78.1610 N.3   114  ILE114     -0.1245
     99  CA        41.2420   42.4210   79.6370 C.3   114  ILE114      0.1561
    100  C         39.7940   42.3140   80.0480 C.2   114  ILE114      0.2260
    101  O         38.9510   42.6760   79.2140 O.2   114  ILE114     -0.2867
    102  CB        41.9190   43.6940   80.1870 C.3   114  ILE114      0.0252
    103  CG1       41.3290   45.0350   79.7240 C.3   114  ILE114      0.0019
    104  CG2       43.4000   43.6290   79.7710 C.3   114  ILE114      0.0019
    105  CD1       40.1170   45.5020   80.5230 C.3   114  ILE114      0.0001
@<TRIPOS>BOND
     1    18    19    1
     2    21    20    2
     3    72    71    2
     4    86    85    2
     5    77    80    1
     6    77    78    1
     7    77    76    1
     8    19    20    1
     9    19    22    1
    10    85    84    1
    11    80    81    1
    12    71    76   am
    13    71    70    1
    14    78    79    2
    15    78    83   am
    16    81    82    1
    17    76    82    1
    18    69    70    1
    19    69    75    1
    20    83    84    1
    21    84    87    1
    22    70    73    1
    23    22    23    1
    24    17    15    1
    25    75    74    1
    26    23    24    1
    27    16    15    1
    28    87    89    1
    29    87    88    1
    30    15    14    1
    31    74    73    1
    32    13    12    2
    33    14    11    1
    34    24    26   ar
    35    24    25   ar
    36    12    11    1
    37    62    63    2
    38    62    61    1
    39    88    90    1
    40    11    10    1
    41    61    64    1
    42    61    60    1
    43    64    65    1
    44    65    66    1
    45    66    67    1
    46    10     7   am
    47    67    68    1
    48     1     2    1
    49    91    92    1
    50     4     3    2
    51     2     3    1
    52     8     7    2
    53     7     6    1
    54     3     5   am
    55    97    95    1
    56    96    95    1
    57     5     6    1
    58    94    93    2
    59    95    92    1
    60    92    93    1
    61     6     9    1
    62    50    48    1
    63    34    32   am
    64    30    29    2
    65    49    48    1
    66    48    47    1
    67    28    27    1
    68    28    29    1
    69    28    31    1
    70    29    35   am
    71    32    31    1
    72    32    33    2
    73    47    44    1
    74    35    36    1
    75    43    44    1
    76    43    37   am
    77    44    45    1
    78    37    36    1
    79    37    38    2
    80    36    39    1
    81    98    99    1
    82    42    40    1
    83    45    46    2
    84    45    51   am
    85   101   100    2
    86    39    40    1
    87    40    41    1
    88    99   100    1
    89    99   102    1
    90   103   102    1
    91   103   105    1
    92   104   102    1
    93    51    52    1
    94    58    57   ar
    95    57    59   ar
    96    57    56    1
    97    52    53    1
    98    52    55    1
    99    53    54    2
   100    55    56    1
