@<TRIPOS>MOLECULE
tmp/2nmbA00.pdb
 134 130 0 0 0
SMALL
GASTEIGER

@<TRIPOS>ATOM
      1  N         -1.9080  -11.9050    4.0570 N.3    35  GLY35      -0.1210
      2  CA        -3.2210  -11.8500    4.6730 C.3    35  GLY35       0.1956
      3  C         -3.6490  -10.4310    4.9920 C.2    35  GLY35       0.2611
      4  O         -3.1060   -9.4720    4.4430 O.2    35  GLY35      -0.2717
      5  N         -4.6230  -10.2970    5.8850 N.am   36  MET36      -0.1979
      6  CA        -5.1240   -8.9860    6.2780 C.3    36  MET36       0.1605
      7  C         -4.9290   -8.7500    7.7730 C.2    36  MET36       0.2287
      8  O         -4.6440   -7.6330    8.2030 O.2    36  MET36      -0.2864
      9  CB        -6.6050   -8.8550    5.9200 C.3    36  MET36       0.0413
     10  CG        -7.0100   -7.4510    5.5010 C.3    36  MET36       0.0598
     11  SD        -8.2200   -6.7160    6.6180 S.3    36  MET36      -0.1393
     12  CE        -7.2110   -5.4960    7.4550 C.3    36  MET36       0.0692
     13  N          0.3120   -7.5230   -2.2550 N.3    86  PHE86      -0.1227
     14  CA        -0.8480   -6.6370   -2.3500 C.3    86  PHE86       0.1736
     15  C         -1.0620   -5.8740   -1.0480 C.2    86  PHE86       0.2596
     16  O         -0.3660   -6.1050   -0.0590 O.2    86  PHE86      -0.2718
     17  CB        -2.1160   -7.4230   -2.7060 C.3    86  PHE86       0.0547
     18  CG        -1.8810   -8.5360   -3.6860 C.ar   86  PHE86      -0.0202
     19  CD1       -0.9850   -8.3800   -4.7320 C.ar   86  PHE86      -0.0042
     20  CD2       -2.5570   -9.7390   -3.5610 C.ar   86  PHE86      -0.0042
     21  CE1       -0.7690   -9.4040   -5.6350 C.ar   86  PHE86      -0.0003
     22  CE2       -2.3450  -10.7660   -4.4600 C.ar   86  PHE86      -0.0003
     23  CZ        -1.4490  -10.5980   -5.4980 C.ar   86  PHE86      -0.0000
     24  N         -2.0240   -4.9580   -1.0600 N.am   87  CYS87      -0.1956
     25  CA        -2.3240   -4.1510    0.1150 C.3    87  CYS87       0.1843
     26  C         -3.6560   -4.5560    0.7330 C.2    87  CYS87       0.2625
     27  O         -4.4610   -5.2460    0.1060 O.2    87  CYS87      -0.2714
     28  CB        -2.3610   -2.6690   -0.2600 C.3    87  CYS87       0.0997
     29  SG        -1.9590   -1.5530    1.1050 S.3    87  CYS87      -0.0797
     30  N         -3.8840   -4.1140    1.9630 N.am   88  ALA88      -0.1964
     31  CA        -5.1180   -4.4200    2.6720 C.3    88  ALA88       0.1713
     32  C         -5.4100   -3.3620    3.7330 C.2    88  ALA88       0.2458
     33  O         -4.8550   -3.4050    4.8320 O.2    88  ALA88      -0.2730
     34  CB        -5.0380   -5.8000    3.3020 C.3    88  ALA88       0.0333
     35  N         -6.2730   -2.3820    3.4120 N.am   89  PRO89      -0.2727
     36  CA        -6.6280   -1.3150    4.3500 C.3    89  PRO89       0.1402
     37  C         -7.0130   -1.8680    5.7160 C.2    89  PRO89       0.2269
     38  O         -7.8450   -2.7700    5.8150 O.2    89  PRO89      -0.2865
     39  CB        -7.8300   -0.6410    3.6880 C.3    89  PRO89       0.0296
     40  CG        -7.6800   -0.9240    2.2330 C.3    89  PRO89       0.0237
     41  CD        -6.9840   -2.2540    2.1270 C.3    89  PRO89       0.0939
     42  N         -6.6550    4.7460   -0.8410 N.3   125  SER125     -0.1202
     43  CA        -7.5900    3.6310   -0.7660 C.3   125  SER125      0.2020
     44  C         -8.1390    3.2890   -2.1470 C.2   125  SER125      0.2618
     45  O         -7.9650    2.1720   -2.6360 O.2   125  SER125     -0.2717
     46  CB        -8.7410    3.9670    0.1840 C.3   125  SER125      0.2103
     47  OG        -9.3750    2.7910    0.6560 O.3   125  SER125     -0.2182
     48  N         -8.8000    4.2570   -2.7720 N.am  126  HIS126     -0.1975
     49  CA        -9.3740    4.0580   -4.0970 C.3   126  HIS126      0.1656
     50  C         -8.2900    4.0830   -5.1690 C.2   126  HIS126      0.2291
     51  O         -8.4410    3.4820   -6.2330 O.2   126  HIS126     -0.2864
     52  CB       -10.4210    5.1340   -4.3910 C.3   126  HIS126      0.0771
     53  CG       -11.5980    4.6260   -5.1650 C.ar  126  HIS126      0.0820
     54  ND1      -12.6910    4.0160   -4.5890 N.ar  126  HIS126     -0.2267
     55  CD2      -11.8390    4.6430   -6.5010 C.ar  126  HIS126      0.1154
     56  CE1      -13.5440    3.6920   -5.5710 C.ar  126  HIS126      0.1986
     57  NE2      -13.0730    4.0510   -6.7500 N.ar  126  HIS126     -0.2212
     58  N         -6.2880    0.8430   -4.4920 N.3   129  GLY129     -0.1225
     59  CA        -7.3400   -0.1510   -4.5590 C.3   129  GLY129      0.1811
     60  C         -7.6090   -0.5690   -5.9900 C.2   129  GLY129      0.2280
     61  O         -8.0120   -1.7020   -6.2550 O.2   129  GLY129     -0.2866
     62  N         -4.2840   -2.5570   -8.3480 N.3   132  PHE132     -0.1227
     63  CA        -4.2930   -3.9900   -8.6050 C.3   132  PHE132      0.1736
     64  C         -5.3000   -4.3260   -9.6990 C.2   132  PHE132      0.2595
     65  O         -5.1430   -5.3090  -10.4230 O.2   132  PHE132     -0.2718
     66  CB        -4.6340   -4.7550   -7.3250 C.3   132  PHE132      0.0547
     67  CG        -3.7610   -4.3840   -6.1620 C.ar  132  PHE132     -0.0202
     68  CD1       -2.5040   -4.9480   -6.0190 C.ar  132  PHE132     -0.0042
     69  CD2       -4.1900   -3.4650   -5.2210 C.ar  132  PHE132     -0.0042
     70  CE1       -1.6920   -4.6060   -4.9560 C.ar  132  PHE132     -0.0003
     71  CE2       -3.3850   -3.1180   -4.1530 C.ar  132  PHE132     -0.0003
     72  CZ        -2.1330   -3.6890   -4.0200 C.ar  132  PHE132     -0.0000
     73  N         -6.3240   -3.4870   -9.8230 N.am  133  ALA133     -0.1980
     74  CA        -7.3560   -3.6740  -10.8370 C.3   133  ALA133      0.1597
     75  C         -6.7400   -3.9640  -12.2010 C.2   133  ALA133      0.2287
     76  O         -7.1900   -4.8540  -12.9210 O.2   133  ALA133     -0.2864
     77  CB        -8.2480   -2.4450  -10.9090 C.3   133  ALA133      0.0319
     78  N         -5.2160   -7.7360  -12.1470 N.3   136  LEU136     -0.1245
     79  CA        -6.2130   -8.7770  -12.3630 C.3   136  LEU136      0.1561
     80  C         -7.5590   -8.1610  -12.7320 C.2   136  LEU136      0.2260
     81  O         -8.5840   -8.4620  -12.1220 O.2   136  LEU136     -0.2867
     82  CB        -6.3510   -9.6570  -11.1160 C.3   136  LEU136      0.0270
     83  CG        -6.8730   -8.9490   -9.8630 C.3   136  LEU136      0.0019
     84  CD1       -7.3570   -9.9670   -8.8410 C.3   136  LEU136      0.0001
     85  CD2       -5.7960   -8.0590   -9.2610 C.3   136  LEU136      0.0001
     86  N        -10.2650  -10.2400  -12.7640 N.3   139  LYS139     -0.1245
     87  CA       -10.3570  -11.0000  -11.5240 C.3   139  LYS139      0.1561
     88  C         -9.6970  -12.3630  -11.6750 C.2   139  LYS139      0.2260
     89  O        -10.2350  -13.3790  -11.2340 O.2   139  LYS139     -0.2867
     90  CB       -11.8190  -11.1640  -11.1080 C.3   139  LYS139      0.0271
     91  CG       -12.5170   -9.8460  -10.8090 C.3   139  LYS139      0.0035
     92  CD       -11.8280   -9.0920   -9.6830 C.3   139  LYS139      0.0206
     93  CE       -12.8030   -8.2070   -8.9240 C.3   139  LYS139      0.1093
     94  NZ       -13.5120   -7.2560   -9.8250 N.3   139  LYS139     -0.1314
     95  N         -7.5650  -13.4820  -10.0520 N.3   141  ARG141     -0.1231
     96  CA        -7.2970  -13.9810   -8.7100 C.3   141  ARG141      0.1694
     97  C         -8.0370  -15.2910   -8.4540 C.2   141  ARG141      0.2592
     98  O         -9.2450  -15.3850   -8.6730 O.2   141  ARG141     -0.2718
     99  CB        -7.7080  -12.9410   -7.6650 C.3   141  ARG141      0.0321
    100  CG        -6.5350  -12.2700   -6.9530 C.3   141  ARG141      0.0489
    101  CD        -5.3540  -12.0200   -7.8840 C.3   141  ARG141      0.2205
    102  NE        -4.6820  -10.7570   -7.5930 N.pl3 141  ARG141     -0.0865
    103  CZ        -3.7280  -10.2360   -8.3580 C.cat 141  ARG141      0.5346
    104  NH1       -3.3370  -10.8720   -9.4560 N.pl3 141  ARG141      0.1354
    105  NH2       -3.1650   -9.0840   -8.0290 N.pl3 141  ARG141      0.1354
    106  N         -7.3070  -16.2960   -7.9850 N.am  142  ARG142     -0.1966
    107  CA        -7.8990  -17.5940   -7.6910 C.3   142  ARG142      0.1729
    108  C         -8.1040  -17.7670   -6.1900 C.2   142  ARG142      0.2617
    109  O         -7.2900  -18.3910   -5.5080 O.2   142  ARG142     -0.2715
    110  CB        -7.0120  -18.7180   -8.2330 C.3   142  ARG142      0.0348
    111  CG        -7.5270  -19.3250   -9.5280 C.3   142  ARG142      0.0492
    112  CD        -7.0330  -20.7510   -9.7080 C.3   142  ARG142      0.2205
    113  NE        -8.0620  -21.6190  -10.2730 N.pl3 142  ARG142     -0.0865
    114  CZ        -9.1940  -21.9180   -9.6480 C.cat 142  ARG142      0.5346
    115  NH1       -9.4410  -21.4210   -8.4430 N.pl3 142  ARG142      0.1354
    116  NH2      -10.0830  -22.7160  -10.2260 N.pl3 142  ARG142      0.1354
    117  N         -9.1910  -17.2000   -5.6780 N.am  143  THR143     -0.1937
    118  CA        -9.4980  -17.2790   -4.2550 C.3   143  THR143      0.2028
    119  C        -10.7890  -18.0540   -4.0130 C.2   143  THR143      0.2642
    120  O        -10.8880  -18.8330   -3.0650 O.2   143  THR143     -0.2714
    121  CB        -9.6170  -15.8730   -3.6650 C.3   143  THR143      0.1808
    122  OG1      -10.2950  -15.9080   -2.4210 O.3   143  THR143     -0.2208
    123  CG2      -10.3550  -14.9050   -4.5640 C.3   143  THR143      0.0379
    124  N        -11.7800  -17.8310   -4.8720 N.am  144  ARG144     -0.1977
    125  CA       -13.0670  -18.5050   -4.7450 C.3   144  ARG144      0.1597
    126  C        -13.1600  -19.6900   -5.6990 C.2   144  ARG144      0.2287
    127  O        -12.1770  -20.0630   -6.3390 O.2   144  ARG144     -0.2864
    128  CB       -14.2070  -17.5230   -5.0220 C.3   144  ARG144      0.0334
    129  CG       -13.9850  -16.1460   -4.4150 C.3   144  ARG144      0.0492
    130  CD       -15.2970  -15.4050   -4.2200 C.3   144  ARG144      0.2205
    131  NE       -16.1870  -15.5550   -5.3660 N.pl3 144  ARG144     -0.0865
    132  CZ       -17.4550  -15.1570   -5.3700 C.cat 144  ARG144      0.5346
    133  NH1      -17.9780  -14.5890   -4.2920 N.pl3 144  ARG144      0.1354
    134  NH2      -18.2010  -15.3270   -6.4520 N.pl3 144  ARG144      0.1354
@<TRIPOS>BOND
     1    76    75    2
     2    86    87    1
     3    80    79    1
     4    80    81    2
     5    79    78    1
     6    79    82    1
     7    75    74    1
     8    88    87    1
     9    88    89    2
    10    87    90    1
    11    82    83    1
    12    90    91    1
    13    77    74    1
    14    74    73    1
    15    91    92    1
    16    65    64    2
    17   113   112    1
    18   113   114    2
    19   116   114    1
    20    95    96    1
    21    83    85    1
    22    83    84    1
    23    94    93    1
    24    73    64   am
    25   112   111    1
    26    64    63    1
    27    92    93    1
    28   114   115    1
    29   111   110    1
    30   104   103    1
    31    96    97    1
    32    96    99    1
    33    98    97    2
    34    63    62    1
    35    63    66    1
    36    97   106   am
    37   103   105    1
    38   103   102    2
    39   110   107    1
    40   106   107    1
    41   101   102    1
    42   101   100    1
    43   107   108    1
    44    99   100    1
    45    66    67    1
    46    57    55   ar
    47    57    56   ar
    48    55    53   ar
    49   134   132    1
    50   127   126    2
    51    61    60    2
    52    51    50    2
    53   108   117   am
    54   108   109    2
    55    67    68   ar
    56    67    69   ar
    57    68    70   ar
    58    60    59    1
    59   126   125    1
    60   117   118    1
    61    21    23   ar
    62    21    19   ar
    63    56    54   ar
    64    23    22   ar
    65   132   131    2
    66   132   133    1
    67   131   130    1
    68    69    71   ar
    69    50    49    1
    70    53    54   ar
    71    53    52    1
    72   128   125    1
    73   128   129    1
    74    70    72   ar
    75   124   125    1
    76   124   119   am
    77    19    18   ar
    78   123   121    1
    79    59    58    1
    80    22    20   ar
    81   129   130    1
    82    52    49    1
    83   118   119    1
    84   118   121    1
    85    71    72   ar
    86    49    48    1
    87   119   120    2
    88    18    20   ar
    89    18    17    1
    90   121   122    1
    91    48    44   am
    92    17    14    1
    93    45    44    2
    94    14    13    1
    95    14    15    1
    96    44    43    1
    97    24    15   am
    98    24    25    1
    99    15    16    2
   100    42    43    1
   101    43    46    1
   102    28    25    1
   103    28    29    1
   104    27    26    2
   105    25    26    1
   106    46    47    1
   107    26    30   am
   108    30    31    1
   109    41    40    1
   110    41    35    1
   111    40    39    1
   112    31    34    1
   113    31    32    1
   114    35    32   am
   115    35    36    1
   116    39    36    1
   117    32    33    2
   118     1     2    1
   119    36    37    1
   120     4     3    2
   121     2     3    1
   122     3     5   am
   123    10     9    1
   124    10    11    1
   125    37    38    2
   126     5     6    1
   127     9     6    1
   128     6     7    1
   129    11    12    1
   130     7     8    2
