@<TRIPOS>MOLECULE
tmp/2nmvB00.pdb
 246 235 0 0 0
SMALL
GASTEIGER

@<TRIPOS>ATOM
      1  N         -8.1780    6.9040  -12.8120 N.3    62  HIS62      -0.1226
      2  CA        -8.5680    5.5470  -12.3520 C.3    62  HIS62       0.1752
      3  C         -8.8500    4.5130  -13.4600 C.2    62  HIS62       0.2596
      4  O         -8.5700    3.3230  -13.2640 O.2    62  HIS62      -0.2718
      5  CB        -9.6360    5.5410  -11.2410 C.3    62  HIS62       0.0759
      6  CG       -10.9660    6.0820  -11.6580 C.ar   62  HIS62       0.0818
      7  ND1      -11.8840    5.3410  -12.3710 N.ar   62  HIS62      -0.2268
      8  CD2      -11.5540    7.2860  -11.4310 C.ar   62  HIS62       0.1154
      9  CE1      -12.9720    6.0690  -12.5810 C.ar   62  HIS62       0.1986
     10  NE2      -12.7970    7.2540  -12.0240 N.ar   62  HIS62      -0.2212
     11  N         -9.3520    4.9340  -14.6230 N.am   63  ASN63      -0.1960
     12  CA        -9.4620    3.9710  -15.7310 C.3    63  ASN63       0.1819
     13  C         -8.8130    4.4200  -17.0550 C.2    63  ASN63       0.2621
     14  O         -8.7010    5.6020  -17.3320 O.2    63  ASN63      -0.2715
     15  CB       -10.9120    3.6220  -15.9630 C.3    63  ASN63       0.1195
     16  CG       -11.5770    4.6430  -16.7720 C.2    63  ASN63       0.2630
     17  OD1      -11.2370    4.8280  -17.9460 O.2    63  ASN63      -0.2716
     18  ND2      -12.4880    5.3810  -16.1590 N.am   63  ASN63      -0.0877
     19  N         -8.4130    3.4650  -17.8810 N.am   64  LYS64      -0.1963
     20  CA        -7.6550    3.7580  -19.0980 C.3    64  LYS64       0.1728
     21  C         -8.4430    4.5440  -20.1330 C.2    64  LYS64       0.2616
     22  O         -7.8620    5.1140  -21.0440 O.2    64  LYS64      -0.2715
     23  CB        -7.1240    2.4680  -19.7310 C.3    64  LYS64       0.0311
     24  CG        -6.2120    1.6860  -18.7920 C.3    64  LYS64       0.0038
     25  CD        -5.3870    0.5910  -19.4860 C.3    64  LYS64       0.0206
     26  CE        -5.9120   -0.8010  -19.2250 C.3    64  LYS64       0.1093
     27  NZ        -4.7310   -1.7060  -19.0580 N.3    64  LYS64      -0.1314
     28  N         -9.7600    4.5690  -20.0130 N.am   65  THR65      -0.1951
     29  CA       -10.5620    5.1890  -21.0500 C.3    65  THR65       0.1897
     30  C        -10.5210    6.6960  -20.8480 C.2    65  THR65       0.2313
     31  O        -10.2290    7.4560  -21.7830 O.2    65  THR65      -0.2863
     32  CB       -12.0130    4.6090  -21.0480 C.3    65  THR65       0.1794
     33  OG1      -11.9610    3.2270  -21.4530 O.3    65  THR65      -0.2208
     34  CG2      -12.9580    5.4170  -21.9490 C.3    65  THR65       0.0378
     35  N         -0.6520    0.6510  -19.1260 N.3    88  SER88      -0.1202
     36  CA        -0.0590   -0.6780  -19.1580 C.3    88  SER88       0.2020
     37  C         -0.0480   -1.1370  -20.5820 C.2    88  SER88       0.2619
     38  O         -1.0520   -0.9370  -21.3070 O.2    88  SER88      -0.2717
     39  CB        -0.8600   -1.6620  -18.3160 C.3    88  SER88       0.2103
     40  OG        -0.4210   -2.9850  -18.5800 O.3    88  SER88      -0.2182
     41  N          1.0740   -1.7530  -20.9800 N.am   89  TYR89      -0.1961
     42  CA         1.2250   -2.2160  -22.3580 C.3    89  TYR89       0.1771
     43  C          0.5590   -3.5480  -22.5390 C.2    89  TYR89       0.2619
     44  O          0.6310   -4.1160  -23.6190 O.2    89  TYR89      -0.2715
     45  CB         2.6850   -2.2740  -22.8380 C.3    89  TYR89       0.0574
     46  CG         3.6870   -3.1440  -22.0580 C.ar   89  TYR89      -0.0198
     47  CD1        3.3350   -4.3730  -21.4860 C.ar   89  TYR89      -0.0009
     48  CD2        5.0080   -2.7400  -21.9400 C.ar   89  TYR89      -0.0009
     49  CE1        4.2780   -5.1380  -20.7950 C.ar   89  TYR89       0.0417
     50  CE2        5.9400   -3.4810  -21.2500 C.ar   89  TYR89       0.0417
     51  CZ         5.5840   -4.6720  -20.6860 C.ar   89  TYR89       0.1957
     52  OH         6.5580   -5.3880  -20.0100 O.3    89  TYR89      -0.2866
     53  N         -0.0940   -4.0460  -21.4840 N.am   90  TYR90      -0.1974
     54  CA        -0.8010   -5.3150  -21.5860 C.3    90  TYR90       0.1639
     55  C         -2.1530   -5.1480  -22.2570 C.2    90  TYR90       0.2290
     56  O         -3.0190   -4.5000  -21.7210 O.2    90  TYR90      -0.2864
     57  CB        -0.8990   -6.0280  -20.2230 C.3    90  TYR90       0.0560
     58  CG         0.4160   -6.6360  -19.7730 C.ar   90  TYR90      -0.0198
     59  CD1        1.0410   -6.1940  -18.6230 C.ar   90  TYR90      -0.0009
     60  CD2        1.0520   -7.6240  -20.5270 C.ar   90  TYR90      -0.0009
     61  CE1        2.2770   -6.7350  -18.2120 C.ar   90  TYR90       0.0417
     62  CE2        2.2790   -8.1900  -20.1180 C.ar   90  TYR90       0.0417
     63  CZ         2.8850   -7.7420  -18.9560 C.ar   90  TYR90       0.1957
     64  OH         4.0930   -8.2560  -18.5470 O.3    90  TYR90      -0.2866
     65  N         -3.9700   -9.6440  -19.9540 N.3    93  TYR93      -0.1241
     66  CA        -3.1180  -10.1190  -18.8340 C.3    93  TYR93       0.1605
     67  C         -3.8770  -10.9090  -17.7540 C.2    93  TYR93       0.2264
     68  O         -4.5760  -10.3300  -16.9460 O.2    93  TYR93      -0.2867
     69  CB        -2.3900   -8.9510  -18.1730 C.3    93  TYR93       0.0534
     70  CG        -1.3080   -9.3850  -17.2160 C.ar   93  TYR93      -0.0201
     71  CD1        0.0410   -9.3510  -17.5880 C.ar   93  TYR93      -0.0009
     72  CD2       -1.6200   -9.8410  -15.9330 C.ar   93  TYR93      -0.0009
     73  CE1        1.0540   -9.7530  -16.6950 C.ar   93  TYR93       0.0417
     74  CE2       -0.6150  -10.2500  -15.0360 C.ar   93  TYR93       0.0417
     75  CZ         0.7090  -10.2060  -15.4210 C.ar   93  TYR93       0.1957
     76  OH         1.6830  -10.6130  -14.5350 O.3    93  TYR93      -0.2866
     77  N         -3.1320  -12.7780  -14.5700 N.3    95  PRO95      -0.2116
     78  CA        -1.9620  -12.9520  -13.7190 C.3    95  PRO95       0.1372
     79  C         -1.7570  -14.4010  -13.3510 C.2    95  PRO95       0.2244
     80  O         -2.6180  -15.2440  -13.5560 O.2    95  PRO95      -0.2868
     81  CB        -2.2730  -12.1020  -12.4660 C.3    95  PRO95       0.0268
     82  CG        -3.3980  -11.1880  -12.8590 C.3    95  PRO95       0.0207
     83  CD        -4.1660  -11.9390  -13.9270 C.3    95  PRO95       0.0892
     84  N          0.6600  -17.2520  -15.9630 N.3   108  LYS108     -0.1245
     85  CA         0.6930  -15.8950  -16.5490 C.3   108  LYS108      0.1561
     86  C          0.5210  -15.9010  -18.0740 C.2   108  LYS108      0.2260
     87  O          1.2020  -16.6190  -18.7880 O.2   108  LYS108     -0.2867
     88  CB         1.9550  -15.1480  -16.1640 C.3   108  LYS108      0.0271
     89  CG         2.0250  -13.7490  -16.7850 C.3   108  LYS108      0.0035
     90  CD         3.2860  -13.0020  -16.3970 C.3   108  LYS108      0.0206
     91  CE         4.5510  -13.5170  -17.0480 C.3   108  LYS108      0.1093
     92  NZ         4.7760  -12.7840  -18.3480 N.3   108  LYS108     -0.1314
     93  N          4.9910    4.5350  -23.7620 N.3   120  ARG120     -0.1245
     94  CA         5.6200    4.5290  -22.4460 C.3   120  ARG120      0.1563
     95  C          7.0790    4.8980  -22.5920 C.2   120  ARG120      0.2260
     96  O          7.6750    5.5330  -21.7070 O.2   120  ARG120     -0.2867
     97  CB         5.5020    3.1610  -21.7920 C.3   120  ARG120      0.0307
     98  CG         4.0990    2.7950  -21.3800 C.3   120  ARG120      0.0489
     99  CD         3.9590    1.3130  -21.1210 C.3   120  ARG120      0.2205
    100  NE         4.9780    0.8250  -20.2000 N.pl3 120  ARG120     -0.0865
    101  CZ         4.8710    0.7760  -18.8650 C.cat 120  ARG120      0.5346
    102  NH1        5.8780    0.3140  -18.1480 N.pl3 120  ARG120      0.1354
    103  NH2        3.7800    1.1820  -18.2370 N.pl3 120  ARG120      0.1354
    104  N         -1.9750    5.7750  -15.7600 N.3   138  SER138     -0.1202
    105  CA        -2.8620    4.9800  -14.9010 C.3   138  SER138      0.2020
    106  C         -2.1610    4.8200  -13.5420 C.2   138  SER138      0.2619
    107  O         -1.2750    5.6110  -13.2100 O.2   138  SER138     -0.2717
    108  CB        -3.2200    3.6300  -15.5490 C.3   138  SER138      0.2103
    109  OG        -2.0650    2.9420  -16.0810 O.3   138  SER138     -0.2182
    110  N         -2.5420    3.8250  -12.7460 N.am  139  VAL139     -0.1965
    111  CA        -1.7320    3.4800  -11.5570 C.3   139  VAL139      0.1727
    112  C         -0.4610    2.7170  -11.9320 C.2   139  VAL139      0.2616
    113  O          0.3360    2.3700  -11.0640 O.2   139  VAL139     -0.2715
    114  CB        -2.4780    2.6410  -10.5470 C.3   139  VAL139      0.0290
    115  CG1       -3.4460    3.5040   -9.7480 C.3   139  VAL139      0.0023
    116  CG2       -3.1860    1.5070  -11.2660 C.3   139  VAL139      0.0023
    117  N         -0.2840    2.4460  -13.2260 N.am  140  SER140     -0.1950
    118  CA         0.9750    1.9850  -13.7940 C.3   140  SER140      0.1924
    119  C          2.1660    2.8570  -13.3290 C.2   140  SER140      0.2314
    120  O          3.2990    2.3940  -13.2230 O.2   140  SER140     -0.2863
    121  CB         0.8360    2.0430  -15.3140 C.3   140  SER140      0.2116
    122  OG         1.7310    1.1690  -15.9650 O.3   140  SER140     -0.2180
    123  N          3.8480    1.3420  -10.3820 N.3   143  TYR143     -0.1227
    124  CA         4.4560    0.0290  -10.6150 C.3   143  TYR143      0.1736
    125  C          5.8870    0.2240  -11.0510 C.2   143  TYR143      0.2596
    126  O          6.3160    1.3500  -11.2180 O.2   143  TYR143     -0.2718
    127  CB         3.6350   -0.8300  -11.5850 C.3   143  TYR143      0.0548
    128  CG         2.4840   -1.5530  -10.9130 C.ar  143  TYR143     -0.0200
    129  CD1        1.3700   -0.8590  -10.4410 C.ar  143  TYR143     -0.0009
    130  CD2        2.5070   -2.9280  -10.7490 C.ar  143  TYR143     -0.0009
    131  CE1        0.3180   -1.5340   -9.8240 C.ar  143  TYR143      0.0417
    132  CE2        1.4820   -3.6000  -10.1190 C.ar  143  TYR143      0.0417
    133  CZ         0.3970   -2.9050   -9.6690 C.ar  143  TYR143      0.1957
    134  OH        -0.6250   -3.5860   -9.0760 O.3   143  TYR143     -0.2866
    135  N          6.6190   -0.8740  -11.2040 N.am  144  GLY144     -0.1957
    136  CA         8.0680   -0.8360  -11.2610 C.3   144  GLY144      0.1869
    137  C          8.6800   -0.6620  -12.6220 C.2   144  GLY144      0.2309
    138  O          8.0820   -1.0320  -13.6140 O.2   144  GLY144     -0.2863
    139  N         10.6230  -11.2500  -14.2330 N.3   304  GLU304     -0.1245
    140  CA        10.2860  -10.0530  -13.4530 C.3   304  GLU304      0.1567
    141  C         10.1170  -10.3560  -11.9880 C.2   304  GLU304      0.2260
    142  O         10.2210   -9.4540  -11.1540 O.2   304  GLU304     -0.2867
    143  CB         8.9950   -9.4280  -13.9570 C.3   304  GLU304      0.0388
    144  CG         7.7820  -10.3390  -13.8500 C.3   304  GLU304      0.1160
    145  CD         7.6750  -11.3670  -14.9980 C.2   304  GLU304      0.3649
    146  OE1        6.6600  -12.1090  -14.9910 O.co2 304  GLU304     -0.2457
    147  OE2        8.5870  -11.4460  -15.8800 O.co2 304  GLU304     -0.2457
    148  N         -7.9130    3.4980   -5.2010 N.3   343  GLN343     -0.1245
    149  CA        -7.2250    2.6690   -6.1650 C.3   343  GLN343      0.1566
    150  C         -5.7110    2.7090   -5.9880 C.2   343  GLN343      0.2260
    151  O         -5.0850    1.6720   -5.9480 O.2   343  GLN343     -0.2867
    152  CB        -7.6150    3.0630   -7.5680 C.3   343  GLN343      0.0367
    153  CG        -7.2680    2.0020   -8.6120 C.3   343  GLN343      0.0905
    154  CD        -7.4140    2.5060  -10.0430 C.2   343  GLN343      0.2608
    155  OE1       -6.7110    3.4280  -10.4830 O.2   343  GLN343     -0.2717
    156  NE2       -8.3250    1.8960  -10.7780 N.am  343  GLN343     -0.0878
    157  N         -3.4500   -0.9760   -4.4000 N.3   347  MET347     -0.1245
    158  CA        -2.5930   -1.7240   -5.3190 C.3   347  MET347      0.1570
    159  C         -1.5840   -2.6080   -4.6030 C.2   347  MET347      0.2261
    160  O         -1.5150   -3.8000   -4.8940 O.2   347  MET347     -0.2867
    161  CB        -1.8970   -0.8140   -6.3320 C.3   347  MET347      0.0387
    162  CG        -2.8370   -0.0280   -7.2350 C.3   347  MET347      0.0595
    163  SD        -4.0910   -1.0450   -8.0570 S.3   347  MET347     -0.1393
    164  CE        -3.1370   -2.0220   -9.2030 C.3   347  MET347      0.0692
    165  N         -1.7130   -6.7370   -4.5440 N.3   351  ASP351     -0.1239
    166  CA        -0.5470   -7.3930   -5.1330 C.3   351  ASP351      0.1674
    167  C          0.1080   -8.3910   -4.1680 C.2   351  ASP351      0.2266
    168  O          0.5070   -9.4810   -4.5660 O.2   351  ASP351     -0.2867
    169  CB         0.4690   -6.3280   -5.6120 C.3   351  ASP351      0.1410
    170  CG         1.9030   -6.9010   -5.8710 C.2   351  ASP351      0.3668
    171  OD1        2.6790   -7.1480   -4.8960 O.co2 351  ASP351     -0.2456
    172  OD2        2.2680   -7.0590   -7.0710 O.co2 351  ASP351     -0.2456
    173  N         -1.8730  -11.8210   -3.4770 N.3   354  ARG354     -0.1245
    174  CA        -1.6910  -12.7830   -4.5520 C.3   354  ARG354      0.1563
    175  C         -0.3590  -13.5670   -4.5300 C.2   354  ARG354      0.2260
    176  O         -0.3040  -14.7790   -4.8190 O.2   354  ARG354     -0.2867
    177  CB        -1.7760  -12.0150   -5.8520 C.3   354  ARG354      0.0307
    178  CG        -2.7300  -12.6120   -6.8700 C.3   354  ARG354      0.0489
    179  CD        -2.6290  -11.8360   -8.1740 C.3   354  ARG354      0.2205
    180  NE        -1.2780  -11.9670   -8.7290 N.pl3 354  ARG354     -0.0865
    181  CZ        -0.3640  -10.9940   -8.7410 C.cat 354  ARG354      0.5346
    182  NH1       -0.6490   -9.7850   -8.2350 N.pl3 354  ARG354      0.1354
    183  NH2        0.8350  -11.2290   -9.2750 N.pl3 354  ARG354      0.1354
    184  N          8.9400   -7.2920   -6.0000 N.3   371  ASN371     -0.1240
    185  CA         8.4540   -6.8840   -7.3180 C.3   371  ASN371      0.1653
    186  C          6.9800   -6.5510   -7.1640 C.2   371  ASN371      0.2266
    187  O          6.1180   -7.4160   -7.3170 O.2   371  ASN371     -0.2867
    188  CB         8.7060   -7.9770   -8.3970 C.3   371  ASN371      0.1155
    189  CG         8.3010   -7.5350   -9.8470 C.2   371  ASN371      0.2627
    190  OD1        7.2850   -7.9930  -10.4110 O.2   371  ASN371     -0.2716
    191  ND2        9.1280   -6.6830  -10.4540 N.am  371  ASN371     -0.0877
    192  N        -20.8710   -5.9030  -17.3360 N.3   476  ILE476     -0.1231
    193  CA       -20.5720   -5.2990  -18.6300 C.3   476  ILE476      0.1692
    194  C        -19.2430   -4.5210  -18.6920 C.2   476  ILE476      0.2592
    195  O        -18.9710   -3.6490  -17.8790 O.2   476  ILE476     -0.2718
    196  CB       -21.8030   -4.5850  -19.2620 C.3   476  ILE476      0.0266
    197  CG1      -22.7670   -5.6430  -19.8250 C.3   476  ILE476      0.0019
    198  CG2      -21.3770   -3.6580  -20.3890 C.3   476  ILE476      0.0020
    199  CD1      -24.1230   -5.1450  -20.2730 C.3   476  ILE476      0.0001
    200  N        -18.4120   -4.8890  -19.6670 N.am  477  LYS477     -0.1966
    201  CA       -17.0980   -4.2750  -19.9200 C.3   477  LYS477      0.1728
    202  C        -17.3210   -2.8820  -20.4990 C.2   477  LYS477      0.2616
    203  O        -18.3380   -2.6460  -21.1600 O.2   477  LYS477     -0.2715
    204  CB       -16.3050   -5.1470  -20.9060 C.3   477  LYS477      0.0311
    205  CG       -16.9800   -5.3520  -22.2580 C.3   477  LYS477      0.0038
    206  CD       -16.2640   -6.4110  -23.0380 C.3   477  LYS477      0.0206
    207  CE       -16.7690   -6.4420  -24.4700 C.3   477  LYS477      0.1093
    208  NZ       -16.1030   -7.4690  -25.3100 N.3   477  LYS477     -0.1314
    209  N        -16.3920   -1.9560  -20.2560 N.am  478  THR478     -0.1951
    210  CA       -16.6140   -0.5560  -20.6710 C.3   478  THR478      0.1897
    211  C        -16.7660   -0.4620  -22.1780 C.2   478  THR478      0.2313
    212  O        -17.5910    0.3030  -22.6840 O.2   478  THR478     -0.2863
    213  CB       -15.5100    0.4240  -20.1560 C.3   478  THR478      0.1794
    214  OG1      -15.2270    0.1390  -18.7770 O.3   478  THR478     -0.2208
    215  CG2      -15.9640    1.9370  -20.2810 C.3   478  THR478      0.0378
    216  N        -20.1010   -1.0880  -22.6960 N.3   481  ARG481     -0.1245
    217  CA       -20.9200   -0.0510  -22.0850 C.3   481  ARG481      0.1563
    218  C        -21.0350    1.1470  -23.0180 C.2   481  ARG481      0.2260
    219  O        -22.0810    1.8060  -23.0760 O.2   481  ARG481     -0.2867
    220  CB       -20.3390    0.3760  -20.7270 C.3   481  ARG481      0.0307
    221  CG       -21.3000    1.1250  -19.8180 C.3   481  ARG481      0.0489
    222  CD       -20.7150    1.2300  -18.4070 C.3   481  ARG481      0.2205
    223  NE       -20.6900   -0.0640  -17.7360 N.pl3 481  ARG481     -0.0865
    224  CZ       -19.6360   -0.4940  -17.0150 C.cat 481  ARG481      0.5346
    225  NH1      -18.5220    0.2290  -16.8490 N.pl3 481  ARG481      0.1354
    226  NH2      -19.6970   -1.6870  -16.4430 N.pl3 481  ARG481      0.1354
    227  N        -20.5490    4.4840  -13.3220 N.3   503  ARG503     -0.1231
    228  CA       -19.6660    3.8240  -14.2820 C.3   503  ARG503      0.1694
    229  C        -19.4360    4.7770  -15.4710 C.2   503  ARG503      0.2591
    230  O        -20.2720    5.5970  -15.8450 O.2   503  ARG503     -0.2718
    231  CB       -20.1300    2.4040  -14.6880 C.3   503  ARG503      0.0321
    232  CG       -19.8760    1.4100  -13.5470 C.3   503  ARG503      0.0489
    233  CD       -20.4670    0.0390  -13.8870 C.3   503  ARG503      0.2205
    234  NE       -21.6160   -0.2460  -13.0470 N.pl3 503  ARG503     -0.0865
    235  CZ       -22.5440   -1.1790  -13.2430 C.cat 503  ARG503      0.5346
    236  NH1      -22.4860   -1.9650  -14.3130 N.pl3 503  ARG503      0.1354
    237  NH2      -23.5260   -1.2850  -12.3430 N.pl3 503  ARG503      0.1354
    238  N        -18.2350    4.6510  -16.0050 N.am  504  GLU504     -0.1979
    239  CA       -17.5990    5.5840  -16.9170 C.3   504  GLU504      0.1602
    240  C        -18.3890    5.9070  -18.1750 C.2   504  GLU504      0.2287
    241  O        -19.0060    5.0250  -18.7980 O.2   504  GLU504     -0.2864
    242  CB       -16.2310    4.9900  -17.2680 C.3   504  GLU504      0.0415
    243  CG       -15.4130    5.7350  -18.2860 C.3   504  GLU504      0.1163
    244  CD       -15.0360    7.1270  -17.8380 C.2   504  GLU504      0.3649
    245  OE1      -15.7210    8.0820  -18.3080 O.co2 504  GLU504     -0.2457
    246  OE2      -14.0630    7.2630  -17.0420 O.co2 504  GLU504     -0.2457
@<TRIPOS>BOND
     1   208   207    1
     2   207   206    1
     3    93    94    1
     4    44    43    2
     5   219   218    2
     6   206   205    1
     7   218   217    1
     8    45    42    1
     9    45    46    1
    10   216   217    1
    11   212   211    2
    12    95    94    1
    13    95    96    2
    14    43    42    1
    15    43    53   am
    16    94    97    1
    17    42    41    1
    18   205   204    1
    19    55    56    2
    20    55    54    1
    21   211   210    1
    22   217   220    1
    23    46    48   ar
    24    46    47   ar
    25    34    32    1
    26    48    50   ar
    27    97    98    1
    28    31    30    2
    29    54    53    1
    30    54    57    1
    31    47    49   ar
    32    33    32    1
    33    98    99    1
    34    38    37    2
    35    50    51   ar
    36   203   202    2
    37    99   100    1
    38    29    32    1
    39    29    30    1
    40    29    28    1
    41    22    21    2
    42    41    37   am
    43   204   201    1
    44    49    51   ar
    45   220   221    1
    46    51    52    1
    47   210   209    1
    48   210   213    1
    49    37    36    1
    50    60    62   ar
    51    60    58   ar
    52   202   209   am
    53   202   201    1
    54   198   196    1
    55   215   213    1
    56   199   197    1
    57    57    58    1
    58   100   101    2
    59   213   214    1
    60    21    28   am
    61    21    20    1
    62    62    63   ar
    63    65    66    1
    64   201   200    1
    65   197   196    1
    66   221   222    1
    67    58    59   ar
    68    23    20    1
    69    23    24    1
    70   200   194   am
    71    25    26    1
    72    25    24    1
    73   196   193    1
    74    26    27    1
    75    36    35    1
    76    36    39    1
    77    20    19    1
    78    63    64    1
    79    63    61   ar
    80   101   103    1
    81   101   102    1
    82    66    69    1
    83    66    67    1
    84   241   240    2
    85    87    86    2
    86   194   193    1
    87   194   195    2
    88   193   192    1
    89    59    61   ar
    90    40    39    1
    91   222   223    1
    92    92    91    1
    93   245   244   ar
    94   243   244    1
    95   243   242    1
    96   240   239    1
    97    69    70    1
    98    86    85    1
    99    17    16    2
   100    19    13   am
   101   244   246   ar
   102    67    68    2
   103   223   224    2
   104    71    70   ar
   105    71    73   ar
   106    14    13    2
   107   242   239    1
   108    70    72   ar
   109    13    12    1
   110    91    90    1
   111   224   225    1
   112   224   226    1
   113   239   238    1
   114    89    90    1
   115    89    88    1
   116    16    18   am
   117    16    15    1
   118    73    75   ar
   119    85    88    1
   120    85    84    1
   121   109   108    1
   122   238   229   am
   123   122   121    1
   124    15    12    1
   125    72    74   ar
   126   147   145   ar
   127   230   229    2
   128   104   105    1
   129    12    11    1
   130   108   105    1
   131   229   228    1
   132    75    74   ar
   133    75    76    1
   134   121   118    1
   135   145   146   ar
   136   145   144    1
   137   105   106    1
   138   231   228    1
   139   231   232    1
   140    11     3   am
   141    77    83    1
   142    77    78    1
   143   236   235    1
   144   228   227    1
   145   139   140    1
   146   143   144    1
   147   143   140    1
   148    83    82    1
   149   233   232    1
   150   233   234    1
   151   118   119    1
   152   118   117    1
   153    78    79    1
   154    78    81    1
   155   138   137    2
   156    80    79    2
   157   106   107    2
   158   106   110   am
   159     3     4    2
   160     3     2    1
   161   140   141    1
   162   119   120    2
   163   235   234    2
   164   235   237    1
   165   117   112   am
   166    82    81    1
   167     1     2    1
   168   110   111    1
   169   137   136    1
   170     9     7   ar
   171     9    10   ar
   172     7     6   ar
   173     2     5    1
   174    10     8   ar
   175   141   142    2
   176   112   111    1
   177   112   113    2
   178     6     8   ar
   179     6     5    1
   180   127   128    1
   181   127   124    1
   182   111   114    1
   183   116   114    1
   184   136   135    1
   185   126   125    2
   186   135   125   am
   187   125   124    1
   188   128   130   ar
   189   128   129   ar
   190   156   154   am
   191   130   132   ar
   192   124   123    1
   193   114   115    1
   194   155   154    2
   195   191   189   am
   196   129   131   ar
   197   190   189    2
   198   132   133   ar
   199   154   153    1
   200   189   188    1
   201   131   133   ar
   202   133   134    1
   203   183   181    1
   204   164   163    1
   205   181   180    2
   206   181   182    1
   207   180   179    1
   208   153   152    1
   209   188   185    1
   210   179   178    1
   211   163   162    1
   212   152   149    1
   213   185   186    1
   214   185   184    1
   215   187   186    2
   216   162   161    1
   217   172   170   ar
   218   178   177    1
   219   161   158    1
   220   149   150    1
   221   149   148    1
   222   150   151    2
   223   170   169    1
   224   170   171   ar
   225   177   174    1
   226   169   166    1
   227   158   159    1
   228   158   157    1
   229   166   165    1
   230   166   167    1
   231   160   159    2
   232   176   175    2
   233   168   167    2
   234   174   175    1
   235   174   173    1
