@<TRIPOS>MOLECULE
tmp/2nmxA01.pdb
 162 159 0 0 0
SMALL
GASTEIGER

@<TRIPOS>ATOM
      1  N        -10.3640    5.4390  -13.4890 N.3    65  HIS65      -0.1241
      2  CA       -11.3730    6.0910  -14.3120 C.3    65  HIS65       0.1621
      3  C        -11.2710    7.6080  -14.2730 C.2    65  HIS65       0.2264
      4  O        -10.9550    8.1910  -13.2380 O.2    65  HIS65      -0.2867
      5  CB       -12.7770    5.7020  -13.8340 C.3    65  HIS65       0.0745
      6  CG       -13.1080    4.2530  -14.0050 C.ar   65  HIS65       0.0817
      7  ND1      -14.2060    3.6700  -13.4090 N.ar   65  HIS65      -0.2268
      8  CD2      -12.5090    3.2760  -14.7270 C.ar   65  HIS65       0.1154
      9  CE1      -14.2690    2.3970  -13.7570 C.ar   65  HIS65       0.1986
     10  NE2      -13.2530    2.1330  -14.5560 N.ar   65  HIS65      -0.2212
     11  N        -13.6720   10.6110  -14.7620 N.3    67  ASN67      -0.1240
     12  CA       -15.0880   10.9350  -14.8900 C.3    67  ASN67       0.1653
     13  C        -15.4080   12.3620  -15.3010 C.2    67  ASN67       0.2266
     14  O        -14.6200   13.2820  -15.0880 O.2    67  ASN67      -0.2867
     15  CB       -15.8200   10.6080  -13.5870 C.3    67  ASN67       0.1155
     16  CG       -15.7880    9.1280  -13.2580 C.2    67  ASN67       0.2627
     17  OD1      -15.9230    8.2810  -14.1410 O.2    67  ASN67      -0.2716
     18  ND2      -15.6250    8.8100  -11.9790 N.am   67  ASN67      -0.0877
     19  N        -19.4890   10.3630  -20.0120 N.3    89  PHE89      -0.1227
     20  CA       -19.4210   10.2660  -18.5640 C.3    89  PHE89       0.1736
     21  C        -18.0920    9.7350  -18.0530 C.2    89  PHE89       0.2595
     22  O        -17.7660    9.9260  -16.8820 O.2    89  PHE89      -0.2718
     23  CB       -20.5850    9.4280  -17.9940 C.3    89  PHE89       0.0547
     24  CG       -20.4740    7.9370  -18.2280 C.ar   89  PHE89      -0.0202
     25  CD1      -21.0270    7.3410  -19.3650 C.ar   89  PHE89      -0.0042
     26  CD2      -19.8850    7.1200  -17.2630 C.ar   89  PHE89      -0.0042
     27  CE1      -20.9960    5.9450  -19.5270 C.ar   89  PHE89      -0.0003
     28  CE2      -19.8470    5.7290  -17.4120 C.ar   89  PHE89      -0.0003
     29  CZ       -20.4050    5.1380  -18.5430 C.ar   89  PHE89      -0.0000
     30  N        -17.3120    9.0970  -18.9220 N.am   90  GLN90      -0.1979
     31  CA       -16.0330    8.5530  -18.4890 C.3    90  GLN90       0.1601
     32  C        -15.1910    7.9510  -19.6100 C.2    90  GLN90       0.2287
     33  O        -15.6970    7.6010  -20.6770 O.2    90  GLN90      -0.2864
     34  CB       -16.2900    7.4860  -17.4140 C.3    90  GLN90       0.0394
     35  CG       -15.0900    6.6320  -17.0380 C.3    90  GLN90       0.0908
     36  CD       -15.4920    5.3760  -16.2830 C.2    90  GLN90       0.2608
     37  OE1      -15.2700    4.2590  -16.7510 O.2    90  GLN90      -0.2717
     38  NE2      -16.0940    5.5550  -15.1120 N.am   90  GLN90      -0.0878
     39  N        -11.4020    5.4340  -19.8670 N.3    92  HIS92      -0.1241
     40  CA       -10.4010    4.6840  -19.1290 C.3    92  HIS92       0.1621
     41  C         -9.6550    3.7980  -20.1110 C.2    92  HIS92       0.2264
     42  O         -9.9440    3.8140  -21.3100 O.2    92  HIS92      -0.2867
     43  CB       -11.0760    3.8210  -18.0590 C.3    92  HIS92       0.0745
     44  CG       -12.0580    2.8310  -18.6110 C.ar   92  HIS92       0.0817
     45  ND1      -13.4210    2.9530  -18.4380 N.ar   92  HIS92      -0.2268
     46  CD2      -11.8700    1.7010  -19.3280 C.ar   92  HIS92       0.1154
     47  CE1      -14.0290    1.9380  -19.0230 C.ar   92  HIS92       0.1986
     48  NE2      -13.1100    1.1630  -19.5710 N.ar   92  HIS92      -0.2212
     49  N         -7.3840   -0.1720  -20.7570 N.3    94  HIS94      -0.1241
     50  CA        -7.1850   -1.5780  -20.4420 C.3    94  HIS94       0.1621
     51  C         -5.7940   -1.8660  -20.9790 C.2    94  HIS94       0.2264
     52  O         -5.4060   -1.3160  -22.0100 O.2    94  HIS94      -0.2867
     53  CB        -8.2000   -2.4490  -21.1730 C.3    94  HIS94       0.0745
     54  CG        -9.5920   -2.3320  -20.6370 C.ar   94  HIS94       0.0817
     55  ND1      -10.0870   -3.1700  -19.6610 N.ar   94  HIS94      -0.2268
     56  CD2      -10.5960   -1.4840  -20.9520 C.ar   94  HIS94       0.1154
     57  CE1      -11.3410   -2.8470  -19.4020 C.ar   94  HIS94       0.1986
     58  NE2      -11.6740   -1.8270  -20.1720 N.ar   94  HIS94      -0.2212
     59  N        -11.2050    3.4190  -23.8780 N.3   117  HIS117     -0.1241
     60  CA       -12.6560    3.3440  -23.9080 C.3   117  HIS117      0.1621
     61  C        -13.2570    4.6680  -23.4580 C.2   117  HIS117      0.2264
     62  O        -12.9520    5.1580  -22.3700 O.2   117  HIS117     -0.2867
     63  CB       -13.1520    2.2240  -22.9930 C.3   117  HIS117      0.0745
     64  CG       -12.9140    0.8470  -23.5300 C.ar  117  HIS117      0.0817
     65  ND1      -13.0620   -0.2800  -22.7550 N.ar  117  HIS117     -0.2268
     66  CD2      -12.5760    0.4090  -24.7660 C.ar  117  HIS117      0.1154
     67  CE1      -12.8260   -1.3540  -23.4850 C.ar  117  HIS117      0.1986
     68  NE2      -12.5300   -0.9630  -24.7110 N.ar  117  HIS117     -0.2212
     69  N        -16.7870    6.1620  -22.6820 N.3   119  ALA119     -0.1245
     70  CA       -18.1780    5.7720  -22.4510 C.3   119  ALA119      0.1562
     71  C        -19.1990    6.9000  -22.3700 C.2   119  ALA119      0.2260
     72  O        -18.9090    7.9800  -21.8570 O.2   119  ALA119     -0.2867
     73  CB       -18.2580    4.9150  -21.1870 C.3   119  ALA119      0.0290
     74  N        -27.1370    7.6390  -15.5990 N.3   129  LEU129     -0.1245
     75  CA       -26.2650    6.5310  -15.9600 C.3   129  LEU129      0.1561
     76  C        -26.7910    5.2450  -15.3310 C.2   129  LEU129      0.2260
     77  O        -26.8790    4.2080  -15.9870 O.2   129  LEU129     -0.2867
     78  CB       -24.8440    6.7900  -15.4600 C.3   129  LEU129      0.0270
     79  CG       -23.8960    5.5880  -15.5010 C.3   129  LEU129      0.0019
     80  CD1      -23.6980    5.1240  -16.9390 C.3   129  LEU129      0.0001
     81  CD2      -22.5660    5.9710  -14.8710 C.3   129  LEU129      0.0001
     82  N        -26.0320    2.3920  -23.3150 N.3   139  LEU139     -0.1245
     83  CA       -24.6650    2.8990  -23.3760 C.3   139  LEU139      0.1561
     84  C        -24.0160    2.8270  -24.7490 C.2   139  LEU139      0.2260
     85  O        -24.3960    2.0200  -25.5990 O.2   139  LEU139     -0.2867
     86  CB       -23.7860    2.1440  -22.3770 C.3   139  LEU139      0.0270
     87  CG       -24.3180    1.9930  -20.9510 C.3   139  LEU139      0.0019
     88  CD1      -23.3900    1.0740  -20.1730 C.3   139  LEU139      0.0001
     89  CD2      -24.4350    3.3540  -20.2760 C.3   139  LEU139      0.0001
     90  N        -19.9350    3.0670  -26.2610 N.3   141  VAL141     -0.1245
     91  CA       -18.5240    3.1770  -25.9350 C.3   141  VAL141      0.1561
     92  C        -17.6570    3.1580  -27.1830 C.2   141  VAL141      0.2260
     93  O        -17.8040    2.2890  -28.0450 O.2   141  VAL141     -0.2867
     94  CB       -18.0680    2.0240  -25.0120 C.3   141  VAL141      0.0252
     95  CG1      -16.6220    2.2440  -24.5800 C.3   141  VAL141      0.0019
     96  CG2      -18.9850    1.9350  -23.7990 C.3   141  VAL141      0.0019
     97  N        -21.5600   -5.6190  -24.6770 N.3   195  SER195     -0.1202
     98  CA       -21.7220   -5.4250  -23.2410 C.3   195  SER195      0.2020
     99  C        -20.5380   -4.7230  -22.5920 C.2   195  SER195      0.2619
    100  O        -19.5670   -4.3540  -23.2560 O.2   195  SER195     -0.2717
    101  CB       -21.8870   -6.7840  -22.5550 C.3   195  SER195      0.2103
    102  OG       -20.6710   -7.5280  -22.5860 O.3   195  SER195     -0.2182
    103  N        -20.6490   -4.5350  -21.2790 N.am  196  LEU196     -0.1965
    104  CA       -19.5740   -3.9580  -20.4880 C.3   196  LEU196      0.1728
    105  C        -18.5570   -5.1020  -20.4940 C.2   196  LEU196      0.2617
    106  O        -18.9420   -6.2740  -20.4640 O.2   196  LEU196     -0.2715
    107  CB       -20.0500   -3.6750  -19.0580 C.3   196  LEU196      0.0311
    108  CG       -21.1480   -2.6170  -18.8800 C.3   196  LEU196      0.0022
    109  CD1      -21.5590   -2.5330  -17.4140 C.3   196  LEU196      0.0001
    110  CD2      -20.6400   -1.2680  -19.3690 C.3   196  LEU196      0.0001
    111  N        -17.2690   -4.7840  -20.5290 N.am  197  THR197     -0.1937
    112  CA       -16.2680   -5.8400  -20.5870 C.3   197  THR197      0.2028
    113  C        -15.8780   -6.4550  -19.2480 C.2   197  THR197      0.2642
    114  O        -15.0240   -7.3400  -19.1950 O.2   197  THR197     -0.2714
    115  CB       -15.0120   -5.3630  -21.3320 C.3   197  THR197      0.1808
    116  OG1      -14.4300   -4.2560  -20.6370 O.3   197  THR197     -0.2208
    117  CG2      -15.3810   -4.9400  -22.7580 C.3   197  THR197      0.0379
    118  N        -16.4940   -5.9820  -18.1690 N.am  198  HIS198     -0.1959
    119  CA       -16.2450   -6.5370  -16.8450 C.3   198  HIS198      0.1772
    120  C        -17.5080   -6.3850  -16.0020 C.2   198  HIS198      0.2462
    121  O        -18.4070   -5.6210  -16.3610 O.2   198  HIS198     -0.2730
    122  CB       -15.0130   -5.8890  -16.1740 C.3   198  HIS198      0.0785
    123  CG       -15.1240   -4.4150  -15.9310 C.ar  198  HIS198      0.0821
    124  ND1      -16.0150   -3.8670  -15.0350 N.ar  198  HIS198     -0.2267
    125  CD2      -14.3790   -3.3830  -16.3990 C.ar  198  HIS198      0.1154
    126  CE1      -15.8140   -2.5650  -14.9560 C.ar  198  HIS198      0.1986
    127  NE2      -14.8260   -2.2450  -15.7730 N.ar  198  HIS198     -0.2212
    128  N        -17.6140   -7.1350  -14.8900 N.am  199  PRO199     -0.2716
    129  CA       -18.8080   -7.0360  -14.0460 C.3   199  PRO199      0.1521
    130  C        -19.2530   -5.5910  -13.8380 C.2   199  PRO199      0.2440
    131  O        -18.4220   -4.6950  -13.6700 O.2   199  PRO199     -0.2731
    132  CB       -18.3670   -7.7170  -12.7550 C.3   199  PRO199      0.0310
    133  CG       -17.4670   -8.8100  -13.2730 C.3   199  PRO199      0.0237
    134  CD       -16.6350   -8.0700  -14.3040 C.3   199  PRO199      0.0939
    135  N        -20.5760   -5.3450  -13.8270 N.am  200  PRO200     -0.2727
    136  CA       -21.7040   -6.2770  -13.9800 C.3   200  PRO200      0.1402
    137  C        -21.9400   -6.9180  -15.3550 C.2   200  PRO200      0.2269
    138  O        -22.8710   -7.7080  -15.5130 O.2   200  PRO200     -0.2865
    139  CB       -22.8950   -5.4400  -13.5260 C.3   200  PRO200      0.0296
    140  CG       -22.5140   -4.0700  -13.9730 C.3   200  PRO200      0.0237
    141  CD       -21.0700   -3.9890  -13.5310 C.3   200  PRO200      0.0939
    142  N        -24.3080   -2.1610  -24.2420 N.3   205  VAL205     -0.1245
    143  CA       -23.3870   -1.3220  -24.9890 C.3   205  VAL205      0.1561
    144  C        -23.3820   -1.4430  -26.5030 C.2   205  VAL205      0.2260
    145  O        -23.3010   -2.5390  -27.0530 O.2   205  VAL205     -0.2867
    146  CB       -21.9270   -1.5510  -24.5140 C.3   205  VAL205      0.0252
    147  CG1      -20.9780   -0.6030  -25.2410 C.3   205  VAL205      0.0019
    148  CG2      -21.8280   -1.3520  -23.0130 C.3   205  VAL205      0.0019
    149  N        -21.1300   -0.7860  -29.3260 N.3   207  TRP207     -0.1241
    150  CA       -19.7160   -0.5080  -29.5060 C.3   207  TRP207      0.1605
    151  C        -19.3580    0.1910  -30.7990 C.2   207  TRP207      0.2264
    152  O        -19.9400   -0.0710  -31.8490 O.2   207  TRP207     -0.2867
    153  CB       -18.9030   -1.7990  -29.3850 C.3   207  TRP207      0.0550
    154  CG       -18.7290   -2.2400  -27.9650 C.ar  207  TRP207      0.0003
    155  CD1      -19.5190   -3.1100  -27.2670 C.ar  207  TRP207      0.0946
    156  CD2      -17.7190   -1.7950  -27.0540 C.ar  207  TRP207      0.0152
    157  NE1      -19.0600   -3.2350  -25.9750 N.ar  207  TRP207     -0.2442
    158  CE2      -17.9560   -2.4380  -25.8180 C.ar  207  TRP207      0.0810
    159  CE3      -16.6350   -0.9130  -27.1610 C.ar  207  TRP207      0.0012
    160  CZ2      -17.1470   -2.2250  -24.6950 C.ar  207  TRP207      0.0191
    161  CZ3      -15.8320   -0.7020  -26.0460 C.ar  207  TRP207      0.0001
    162  CH2      -16.0930   -1.3570  -24.8300 C.ar  207  TRP207      0.0015
@<TRIPOS>BOND
     1   152   151    2
     2   151   150    1
     3   150   153    1
     4   150   149    1
     5   153   154    1
     6    93    92    2
     7   154   155   ar
     8   154   156   ar
     9   155   157   ar
    10    92    91    1
    11   159   156   ar
    12   159   161   ar
    13   156   158   ar
    14   145   144    2
    15   144   143    1
    16    90    91    1
    17   161   162   ar
    18   157   158   ar
    19    91    94    1
    20   158   160   ar
    21    85    84    2
    22   147   146    1
    23    94    95    1
    24    94    96    1
    25   143   146    1
    26   143   142    1
    27   162   160   ar
    28    66    68   ar
    29    66    64   ar
    30    84    83    1
    31    68    67   ar
    32    97    98    1
    33   146   148    1
    34    60    59    1
    35    60    61    1
    36    60    63    1
    37    64    63    1
    38    64    65   ar
    39    67    65   ar
    40    61    62    2
    41    83    82    1
    42    83    86    1
    43   100    99    2
    44    98    99    1
    45    98   101    1
    46   117   115    1
    47    69    70    1
    48    99   103   am
    49   102   101    1
    50    70    71    1
    51    70    73    1
    52    86    87    1
    53    71    72    2
    54    52    51    2
    55   115   116    1
    56   115   112    1
    57    42    41    2
    58   103   104    1
    59    53    54    1
    60    53    50    1
    61    51    50    1
    62    56    54   ar
    63    56    58   ar
    64    87    89    1
    65    87    88    1
    66    49    50    1
    67    33    32    2
    68    54    55   ar
    69   112   111    1
    70   112   113    1
    71   111   105   am
    72   105   104    1
    73   105   106    2
    74   104   107    1
    75    58    57   ar
    76    41    40    1
    77    19    20    1
    78    39    40    1
    79    55    57   ar
    80    32    31    1
    81    48    46   ar
    82    48    47   ar
    83    27    25   ar
    84    27    29   ar
    85   110   108    1
    86    25    24   ar
    87    46    44   ar
    88   113   114    2
    89   113   118   am
    90    40    43    1
    91   107   108    1
    92    47    45   ar
    93    30    31    1
    94    30    21   am
    95   108   109    1
    96    44    45   ar
    97    44    43    1
    98    20    21    1
    99    20    23    1
   100    29    28   ar
   101    31    34    1
   102    24    23    1
   103    24    26   ar
   104   118   119    1
   105    21    22    2
   106    34    35    1
   107    28    26   ar
   108    35    36    1
   109    80    79    1
   110   119   122    1
   111   119   120    1
   112    37    36    2
   113   125   123   ar
   114   125   127   ar
   115   121   120    2
   116    36    38   am
   117   122   123    1
   118   120   128   am
   119    77    76    2
   120    75    74    1
   121    75    78    1
   122    75    76    1
   123   123   124   ar
   124   127   126   ar
   125   138   137    2
   126    79    78    1
   127    79    81    1
   128   137   136    1
   129    13    14    2
   130    13    12    1
   131   124   126   ar
   132    12    11    1
   133    12    15    1
   134   128   134    1
   135   128   129    1
   136     8    10   ar
   137     8     6   ar
   138    10     9   ar
   139     2     3    1
   140     2     5    1
   141     2     1    1
   142   134   133    1
   143     3     4    2
   144    17    16    2
   145   129   130    1
   146   129   132    1
   147     6     5    1
   148     6     7   ar
   149   136   135    1
   150   136   139    1
   151   140   141    1
   152   140   139    1
   153   130   135   am
   154   130   131    2
   155   135   141    1
   156     9     7   ar
   157    15    16    1
   158   133   132    1
   159    16    18   am
