@<TRIPOS>MOLECULE
tmp/2nn1B00.pdb
 149 147 0 0 0
SMALL
GASTEIGER

@<TRIPOS>ATOM
      1  N        -40.7200    5.2740   -8.9780 N.3    64  HIS64      -0.1241
      2  CA       -39.6980    5.8950   -8.1450 C.3    64  HIS64       0.1621
      3  C        -39.7840    7.4120   -8.1920 C.2    64  HIS64       0.2264
      4  O        -40.1860    7.9820   -9.2030 O.2    64  HIS64      -0.2867
      5  CB       -38.2950    5.4950   -8.6360 C.3    64  HIS64       0.0745
      6  CG       -37.9800    4.0340   -8.5060 C.ar   64  HIS64       0.0817
      7  ND1      -36.8880    3.4580   -9.1190 N.ar   64  HIS64      -0.2268
      8  CD2      -38.5870    3.0420   -7.8130 C.ar   64  HIS64       0.1154
      9  CE1      -36.8350    2.1740   -8.8100 C.ar   64  HIS64       0.1986
     10  NE2      -37.8540    1.8960   -8.0180 N.ar   64  HIS64      -0.2212
     11  N        -37.2160   10.2830   -7.8450 N.3    66  ASN66      -0.1240
     12  CA       -35.7820   10.5370   -7.8030 C.3    66  ASN66       0.1653
     13  C        -35.4180   11.9820   -7.4760 C.2    66  ASN66       0.2266
     14  O        -36.1580   12.9110   -7.7940 O.2    66  ASN66      -0.2867
     15  CB       -35.1460   10.1170   -9.1340 C.3    66  ASN66       0.1155
     16  CG       -35.2090    8.6130   -9.3520 C.2    66  ASN66       0.2627
     17  OD1      -34.8320    7.8370   -8.4780 O.2    66  ASN66      -0.2716
     18  ND2      -35.6820    8.2000  -10.5130 N.am   66  ASN66      -0.0877
     19  N        -31.1910    9.9720   -2.7320 N.3    88  PHE88      -0.1227
     20  CA       -31.3330    9.9300   -4.1820 C.3    88  PHE88       0.1736
     21  C        -32.6800    9.4120   -4.6630 C.2    88  PHE88       0.2595
     22  O        -33.0150    9.5770   -5.8340 O.2    88  PHE88      -0.2718
     23  CB       -30.1970    9.1280   -4.8510 C.3    88  PHE88       0.0547
     24  CG       -30.2430    7.6400   -4.6020 C.ar   88  PHE88      -0.0202
     25  CD1      -29.6780    7.0910   -3.4550 C.ar   88  PHE88      -0.0042
     26  CD2      -30.8160    6.7840   -5.5440 C.ar   88  PHE88      -0.0042
     27  CE1      -29.6760    5.7110   -3.2490 C.ar   88  PHE88      -0.0003
     28  CE2      -30.8210    5.3950   -5.3500 C.ar   88  PHE88      -0.0003
     29  CZ       -30.2500    4.8590   -4.2010 C.ar   88  PHE88      -0.0000
     30  N        -33.4710    8.8240   -3.7680 N.am   89  GLN89      -0.1979
     31  CA       -34.7640    8.2810   -4.1770 C.3    89  GLN89       0.1601
     32  C        -35.6210    7.7350   -3.0360 C.2    89  GLN89       0.2287
     33  O        -35.1300    7.4510   -1.9460 O.2    89  GLN89      -0.2864
     34  CB       -34.5040    7.1490   -5.1860 C.3    89  GLN89       0.0394
     35  CG       -35.6700    6.2210   -5.4790 C.3    89  GLN89       0.0908
     36  CD       -35.2520    4.9890   -6.2750 C.2    89  GLN89       0.2608
     37  OE1      -35.5620    3.8610   -5.8980 O.2    89  GLN89      -0.2717
     38  NE2      -34.5460    5.2040   -7.3820 N.am   89  GLN89      -0.0878
     39  N        -39.4340    5.2130   -2.7200 N.3    91  HIS91      -0.1241
     40  CA       -40.4550    4.4620   -3.4380 C.3    91  HIS91       0.1621
     41  C        -41.1960    3.5950   -2.4330 C.2    91  HIS91       0.2264
     42  O        -40.8850    3.6220   -1.2350 O.2    91  HIS91      -0.2867
     43  CB       -39.8150    3.5870   -4.5300 C.3    91  HIS91       0.0745
     44  CG       -38.8080    2.6040   -4.0120 C.ar   91  HIS91       0.0817
     45  ND1      -37.4520    2.7450   -4.2170 N.ar   91  HIS91      -0.2268
     46  CD2      -38.9590    1.4800   -3.2710 C.ar   91  HIS91       0.1154
     47  CE1      -36.8110    1.7530   -3.6240 C.ar   91  HIS91       0.1986
     48  NE2      -37.7030    0.9730   -3.0430 N.ar   91  HIS91      -0.2212
     49  N        -43.4990   -0.3350   -1.6720 N.3    93  HIS93      -0.1241
     50  CA       -43.7070   -1.7500   -1.9560 C.3    93  HIS93       0.1621
     51  C        -45.0930   -2.0430   -1.4180 C.2    93  HIS93       0.2264
     52  O        -45.4670   -1.5330   -0.3630 O.2    93  HIS93      -0.2867
     53  CB       -42.6850   -2.6190   -1.2280 C.3    93  HIS93       0.0745
     54  CG       -41.3180   -2.5550   -1.8270 C.ar   93  HIS93       0.0817
     55  ND1      -40.9230   -3.3670   -2.8690 N.ar   93  HIS93      -0.2268
     56  CD2      -40.2730   -1.7350   -1.5730 C.ar   93  HIS93       0.1154
     57  CE1      -39.6930   -3.0520   -3.2290 C.ar   93  HIS93       0.1986
     58  NE2      -39.2760   -2.0650   -2.4580 N.ar   93  HIS93      -0.2212
     59  N        -39.5860    3.1870    1.2600 N.3   116  HIS116     -0.1241
     60  CA       -38.1280    3.0920    1.2470 C.3   116  HIS116      0.1621
     61  C        -37.5350    4.4160    0.7950 C.2   116  HIS116      0.2264
     62  O        -37.9070    4.9420   -0.2490 O.2   116  HIS116     -0.2867
     63  CB       -37.6660    1.9730    0.3130 C.3   116  HIS116      0.0745
     64  CG       -37.8690    0.6030    0.8810 C.ar  116  HIS116      0.0817
     65  ND1      -37.8140   -0.5390    0.1130 N.ar  116  HIS116     -0.2268
     66  CD2      -38.1430    0.1930    2.1430 C.ar  116  HIS116      0.1154
     67  CE1      -38.0520   -1.5930    0.8730 C.ar  116  HIS116      0.1986
     68  NE2      -38.2540   -1.1760    2.1100 N.ar  116  HIS116     -0.2212
     69  N        -33.9570    5.8450   -0.0040 N.3   118  ALA118     -0.1245
     70  CA       -32.5820    5.4400   -0.2710 C.3   118  ALA118      0.1562
     71  C        -31.5490    6.5630   -0.3690 C.2   118  ALA118      0.2260
     72  O        -31.8400    7.6550   -0.8740 O.2   118  ALA118     -0.2867
     73  CB       -32.5490    4.6060   -1.5370 C.3   118  ALA118      0.0290
     74  N        -23.4820    7.1710   -7.3570 N.3   128  LEU128     -0.1245
     75  CA       -24.3570    6.0670   -6.9830 C.3   128  LEU128      0.1561
     76  C        -23.8590    4.7970   -7.6600 C.2   128  LEU128      0.2260
     77  O        -23.8520    3.7210   -7.0620 O.2   128  LEU128     -0.2867
     78  CB       -25.7930    6.3580   -7.4310 C.3   128  LEU128      0.0270
     79  CG       -26.7850    5.2000   -7.2990 C.3   128  LEU128      0.0019
     80  CD1      -26.9350    4.8420   -5.8380 C.3   128  LEU128      0.0001
     81  CD2      -28.1360    5.5860   -7.9040 C.3   128  LEU128      0.0001
     82  N        -24.6890    1.9440    0.3950 N.3   138  LEU138     -0.1245
     83  CA       -26.0500    2.4560    0.5020 C.3   138  LEU138      0.1561
     84  C        -26.6670    2.4230    1.8990 C.2   138  LEU138      0.2260
     85  O        -26.2630    1.6420    2.7600 O.2   138  LEU138     -0.2867
     86  CB       -26.9550    1.6780   -0.4610 C.3   138  LEU138      0.0270
     87  CG       -26.4720    1.5770   -1.9130 C.3   138  LEU138      0.0019
     88  CD1      -27.4470    0.7300   -2.7200 C.3   138  LEU138      0.0001
     89  CD2      -26.3520    2.9760   -2.5200 C.3   138  LEU138      0.0001
     90  N        -30.7270    2.7040    3.4540 N.3   140  VAL140     -0.1245
     91  CA       -32.1450    2.8420    3.1550 C.3   140  VAL140      0.1561
     92  C        -32.9840    2.8200    4.4200 C.2   140  VAL140      0.2260
     93  O        -32.8240    1.9380    5.2690 O.2   140  VAL140     -0.2867
     94  CB       -32.6530    1.7040    2.2320 C.3   140  VAL140      0.0252
     95  CG1      -34.0890    1.9820    1.8110 C.3   140  VAL140      0.0019
     96  CG2      -31.7560    1.5660    1.0130 C.3   140  VAL140      0.0019
     97  N        -30.2700   -4.8350   -1.5340 N.3   195  LEU195     -0.1231
     98  CA       -31.3590   -4.2290   -2.2750 C.3   195  LEU195      0.1693
     99  C        -32.3630   -5.3830   -2.2620 C.2   195  LEU195      0.2593
    100  O        -31.9510   -6.5490   -2.2910 O.2   195  LEU195     -0.2718
    101  CB       -30.9100   -3.9110   -3.7060 C.3   195  LEU195      0.0284
    102  CG       -29.7530   -2.9190   -3.8490 C.3   195  LEU195      0.0019
    103  CD1      -29.3570   -2.8080   -5.3090 C.3   195  LEU195      0.0001
    104  CD2      -30.1640   -1.5610   -3.3010 C.3   195  LEU195      0.0001
    105  N        -33.6580   -5.0790   -2.1990 N.am  196  THR196     -0.1939
    106  CA       -34.6700   -6.1350   -2.1570 C.3   196  THR196      0.2028
    107  C        -35.1090   -6.6840   -3.5170 C.2   196  THR196      0.2642
    108  O        -36.0010   -7.5270   -3.5870 O.2   196  THR196     -0.2714
    109  CB       -35.9230   -5.6980   -1.3660 C.3   196  THR196      0.1808
    110  OG1      -36.5540   -4.5990   -2.0300 O.3   196  THR196     -0.2208
    111  CG2      -35.5390   -5.2810    0.0550 C.3   196  THR196      0.0379
    112  N        -34.5100   -6.1890   -4.5940 N.am  197  HIS197     -0.1959
    113  CA       -34.7950   -6.7150   -5.9260 C.3   197  HIS197      0.1772
    114  C        -33.5290   -6.5570   -6.7550 C.2   197  HIS197      0.2462
    115  O        -32.6160   -5.8230   -6.3590 O.2   197  HIS197     -0.2730
    116  CB       -36.0260   -6.0510   -6.5860 C.3   197  HIS197      0.0785
    117  CG       -35.9080   -4.5740   -6.8190 C.ar  197  HIS197      0.0821
    118  ND1      -35.0220   -4.0250   -7.7220 N.ar  197  HIS197     -0.2267
    119  CD2      -36.6150   -3.5360   -6.3080 C.ar  197  HIS197      0.1154
    120  CE1      -35.1900   -2.7140   -7.7590 C.ar  197  HIS197      0.1986
    121  NE2      -36.1510   -2.3920   -6.9100 N.ar  197  HIS197     -0.2212
    122  N        -33.4260   -7.2810   -7.8830 N.am  198  PRO198     -0.2716
    123  CA       -32.2290   -7.1810   -8.7280 C.3   198  PRO198      0.1521
    124  C        -31.8170   -5.7220   -8.9340 C.2   198  PRO198      0.2440
    125  O        -32.6770   -4.8590   -9.1190 O.2   198  PRO198     -0.2731
    126  CB       -32.6710   -7.8590  -10.0200 C.3   198  PRO198      0.0310
    127  CG       -33.6060   -8.9210   -9.5130 C.3   198  PRO198      0.0237
    128  CD       -34.4230   -8.1880   -8.4830 C.3   198  PRO198      0.0939
    129  N        -30.5000   -5.4330   -8.9630 N.am  199  PRO199     -0.2727
    130  CA       -29.3310   -6.3160   -8.8290 C.3   199  PRO199      0.1402
    131  C        -29.0350   -7.0100   -7.4920 C.2   199  PRO199      0.2269
    132  O        -28.0640   -7.7700   -7.3910 O.2   199  PRO199     -0.2865
    133  CB       -28.1770   -5.4270   -9.2970 C.3   199  PRO199      0.0296
    134  CG       -28.6080   -4.0720   -8.8770 C.3   199  PRO199      0.0237
    135  CD       -30.0760   -4.0490   -9.2430 C.3   199  PRO199      0.0939
    136  N        -29.5370   -1.0960    6.4880 N.3   206  TRP206     -0.1241
    137  CA       -30.9460   -0.8090    6.7020 C.3   206  TRP206      0.1605
    138  C        -31.2750   -0.1020    8.0100 C.2   206  TRP206      0.2264
    139  O        -30.6800   -0.3730    9.0530 O.2   206  TRP206     -0.2867
    140  CB       -31.7740   -2.0990    6.6160 C.3   206  TRP206      0.0550
    141  CG       -32.0320   -2.5500    5.2120 C.ar  206  TRP206      0.0003
    142  CD1      -31.2990   -3.4400    4.4880 C.ar  206  TRP206      0.0946
    143  CD2      -33.0610   -2.0700    4.3350 C.ar  206  TRP206      0.0152
    144  NE1      -31.8040   -3.5450    3.2110 N.ar  206  TRP206     -0.2442
    145  CE2      -32.8850   -2.7110    3.0910 C.ar  206  TRP206      0.0810
    146  CE3      -34.1130   -1.1540    4.4820 C.ar  206  TRP206      0.0012
    147  CZ2      -33.7220   -2.4660    1.9970 C.ar  206  TRP206      0.0191
    148  CZ3      -34.9430   -0.9110    3.3960 C.ar  206  TRP206      0.0001
    149  CH2      -34.7420   -1.5640    2.1700 C.ar  206  TRP206      0.0015
@<TRIPOS>BOND
     1    18    16   am
     2   126   127    1
     3   126   123    1
     4   127   128    1
     5    16    15    1
     6    16    17    2
     7   133   134    1
     8   133   130    1
     9   135   129    1
    10   135   134    1
    11     4     3    2
    12    15    12    1
    13   125   124    2
    14     7     9   ar
    15     7     6   ar
    16     1     2    1
    17   129   124   am
    18   129   130    1
    19   124   123    1
    20   130   131    1
    21     9    10   ar
    22   123   122    1
    23     5     6    1
    24     5     2    1
    25     6     8   ar
    26   128   122    1
    27     3     2    1
    28    10     8   ar
    29    81    79    1
    30   122   114   am
    31    11    12    1
    32    12    13    1
    33    14    13    2
    34   120   118   ar
    35   120   121   ar
    36   118   117   ar
    37    76    77    2
    38    76    75    1
    39   131   132    2
    40    78    79    1
    41    78    75    1
    42    38    36   am
    43    74    75    1
    44    79    80    1
    45   121   119   ar
    46   117   116    1
    47   117   119   ar
    48   114   115    2
    49   114   113    1
    50   116   113    1
    51    36    37    2
    52    36    35    1
    53   113   112    1
    54    22    21    2
    55    26    28   ar
    56    26    24   ar
    57    35    34    1
    58    28    29   ar
    59   103   102    1
    60    34    31    1
    61    23    24    1
    62    23    20    1
    63    21    20    1
    64    21    30   am
    65    24    25   ar
    66   112   107   am
    67    43    44    1
    68    43    40    1
    69    45    44   ar
    70    45    47   ar
    71    29    27   ar
    72    20    19    1
    73    31    30    1
    74    31    32    1
    75    44    46   ar
    76   102   101    1
    77   102   104    1
    78   101    98    1
    79    47    48   ar
    80   108   107    2
    81   107   106    1
    82    25    27   ar
    83    40    39    1
    84    40    41    1
    85    46    48   ar
    86    57    55   ar
    87    57    58   ar
    88    32    33    2
    89    55    54   ar
    90    88    87    1
    91    89    87    1
    92    58    56   ar
    93    41    42    2
    94   100    99    2
    95    98    99    1
    96    98    97    1
    97    99   105   am
    98   105   106    1
    99   106   109    1
   100   110   109    1
   101    50    49    1
   102    50    51    1
   103    50    53    1
   104    87    86    1
   105    54    56   ar
   106    54    53    1
   107    73    70    1
   108    51    52    2
   109   109   111    1
   110    72    71    2
   111    86    83    1
   112    71    70    1
   113    70    69    1
   114    62    61    2
   115    65    67   ar
   116    65    64   ar
   117    63    64    1
   118    63    60    1
   119    82    83    1
   120    83    84    1
   121    61    60    1
   122    67    68   ar
   123    64    66   ar
   124    96    94    1
   125    60    59    1
   126    95    94    1
   127    84    85    2
   128   147   149   ar
   129   147   145   ar
   130    68    66   ar
   131   149   148   ar
   132    94    91    1
   133   145   144   ar
   134   145   143   ar
   135    91    90    1
   136    91    92    1
   137   144   142   ar
   138   148   146   ar
   139   143   146   ar
   140   143   141   ar
   141    92    93    2
   142   142   141   ar
   143   141   140    1
   144   136   137    1
   145   140   137    1
   146   137   138    1
   147   138   139    2
