@<TRIPOS>MOLECULE
tmp/2nn7B00.pdb
 149 147 0 0 0
SMALL
GASTEIGER

@<TRIPOS>ATOM
      1  N        -40.6790    5.2960   -9.0930 N.3    64  HIS64      -0.1241
      2  CA       -39.6620    5.9190   -8.2570 C.3    64  HIS64       0.1621
      3  C        -39.7260    7.4380   -8.2620 C.2    64  HIS64       0.2264
      4  O        -40.0560    8.0420   -9.2780 O.2    64  HIS64      -0.2867
      5  CB       -38.2660    5.5110   -8.7500 C.3    64  HIS64       0.0745
      6  CG       -37.9570    4.0540   -8.5950 C.ar   64  HIS64       0.0817
      7  ND1      -36.8820    3.4540   -9.2170 N.ar   64  HIS64      -0.2268
      8  CD2      -38.5490    3.0880   -7.8540 C.ar   64  HIS64       0.1154
      9  CE1      -36.8230    2.1830   -8.8620 C.ar   64  HIS64       0.1986
     10  NE2      -37.8230    1.9350   -8.0350 N.ar   64  HIS64      -0.2212
     11  N        -37.2060   10.3040   -7.8280 N.3    66  ASN66      -0.1240
     12  CA       -35.7790   10.5760   -7.7650 C.3    66  ASN66       0.1653
     13  C        -35.4100   12.0210   -7.4330 C.2    66  ASN66       0.2266
     14  O        -36.1580   12.9510   -7.7290 O.2    66  ASN66      -0.2867
     15  CB       -35.1320   10.1580   -9.0870 C.3    66  ASN66       0.1155
     16  CG       -35.1860    8.6630   -9.3060 C.2    66  ASN66       0.2627
     17  OD1      -34.8200    7.8880   -8.4210 O.2    66  ASN66      -0.2716
     18  ND2      -35.6340    8.2480  -10.4810 N.am   66  ASN66      -0.0877
     19  N        -31.1800    9.9800   -2.7690 N.3    88  PHE88      -0.1227
     20  CA       -31.3250    9.9490   -4.2170 C.3    88  PHE88       0.1736
     21  C        -32.6690    9.4270   -4.7020 C.2    88  PHE88       0.2595
     22  O        -33.0010    9.5840   -5.8750 O.2    88  PHE88      -0.2718
     23  CB       -30.1760    9.1780   -4.8980 C.3    88  PHE88       0.0547
     24  CG       -30.2020    7.6890   -4.6860 C.ar   88  PHE88      -0.0202
     25  CD1      -29.6070    7.1190   -3.5620 C.ar   88  PHE88      -0.0042
     26  CD2      -30.7900    6.8490   -5.6360 C.ar   88  PHE88      -0.0042
     27  CE1      -29.5880    5.7350   -3.3830 C.ar   88  PHE88      -0.0003
     28  CE2      -30.7820    5.4540   -5.4690 C.ar   88  PHE88      -0.0003
     29  CZ       -30.1800    4.8970   -4.3420 C.ar   88  PHE88      -0.0000
     30  N        -33.4640    8.8540   -3.8020 N.am   89  GLN89      -0.1979
     31  CA       -34.7550    8.3120   -4.2090 C.3    89  GLN89       0.1601
     32  C        -35.5980    7.7700   -3.0570 C.2    89  GLN89       0.2287
     33  O        -35.0990    7.5100   -1.9660 O.2    89  GLN89      -0.2864
     34  CB       -34.5000    7.1750   -5.2090 C.3    89  GLN89       0.0394
     35  CG       -35.7110    6.3420   -5.6170 C.3    89  GLN89       0.0908
     36  CD       -35.3040    5.0950   -6.3860 C.2    89  GLN89       0.2608
     37  OE1      -35.5040    3.9740   -5.9190 O.2    89  GLN89      -0.2717
     38  NE2      -34.7150    5.2850   -7.5630 N.am   89  GLN89      -0.0878
     39  N        -39.4000    5.2470   -2.7450 N.3    91  HIS91      -0.1241
     40  CA       -40.4230    4.5120   -3.4700 C.3    91  HIS91       0.1621
     41  C        -41.1530    3.6270   -2.4720 C.2    91  HIS91       0.2264
     42  O        -40.8550    3.6580   -1.2700 O.2    91  HIS91      -0.2867
     43  CB       -39.7830    3.6530   -4.5690 C.3    91  HIS91       0.0745
     44  CG       -38.8080    2.6340   -4.0560 C.ar   91  HIS91       0.0817
     45  ND1      -37.4560    2.6970   -4.3240 N.ar   91  HIS91      -0.2268
     46  CD2      -38.9890    1.5330   -3.2870 C.ar   91  HIS91       0.1154
     47  CE1      -36.8490    1.6790   -3.7420 C.ar   91  HIS91       0.1986
     48  NE2      -37.7560    0.9590   -3.1070 N.ar   91  HIS91      -0.2212
     49  N        -43.4380   -0.3310   -1.7580 N.3    93  HIS93      -0.1241
     50  CA       -43.6390   -1.7410   -2.0590 C.3    93  HIS93       0.1621
     51  C        -45.0250   -2.0350   -1.5170 C.2    93  HIS93       0.2264
     52  O        -45.3940   -1.5240   -0.4540 O.2    93  HIS93      -0.2867
     53  CB       -42.6220   -2.6120   -1.3280 C.3    93  HIS93       0.0745
     54  CG       -41.2500   -2.5540   -1.9130 C.ar   93  HIS93       0.0817
     55  ND1      -40.8110   -3.4480   -2.8680 N.ar   93  HIS93      -0.2268
     56  CD2      -40.2270   -1.6960   -1.7000 C.ar   93  HIS93       0.1154
     57  CE1      -39.5740   -3.1440   -3.2140 C.ar   93  HIS93       0.1986
     58  NE2      -39.1960   -2.0850   -2.5200 N.ar   93  HIS93      -0.2212
     59  N        -39.5130    3.1710    1.2220 N.3   116  HIS116     -0.1241
     60  CA       -38.0590    3.0800    1.2260 C.3   116  HIS116      0.1621
     61  C        -37.4680    4.4030    0.7630 C.2   116  HIS116      0.2264
     62  O        -37.8510    4.9290   -0.2810 O.2   116  HIS116     -0.2867
     63  CB       -37.5950    1.9600    0.2950 C.3   116  HIS116      0.0745
     64  CG       -37.8330    0.5870    0.8390 C.ar  116  HIS116      0.0817
     65  ND1      -37.7840   -0.5430    0.0540 N.ar  116  HIS116     -0.2268
     66  CD2      -38.1100    0.1610    2.0950 C.ar  116  HIS116      0.1154
     67  CE1      -38.0280   -1.6070    0.8010 C.ar  116  HIS116      0.1986
     68  NE2      -38.2290   -1.2070    2.0430 N.ar  116  HIS116     -0.2212
     69  N        -33.8900    5.8120   -0.1110 N.3   118  ALA118     -0.1245
     70  CA       -32.5120    5.4170   -0.4040 C.3   118  ALA118      0.1562
     71  C        -31.4920    6.5530   -0.4910 C.2   118  ALA118      0.2260
     72  O        -31.8060    7.6570   -0.9500 O.2   118  ALA118     -0.2867
     73  CB       -32.4900    4.6110   -1.6920 C.3   118  ALA118      0.0290
     74  N        -23.4820    7.1080   -7.5190 N.3   128  LEU128     -0.1245
     75  CA       -24.3730    6.0190   -7.1420 C.3   128  LEU128      0.1561
     76  C        -23.8850    4.7360   -7.8030 C.2   128  LEU128      0.2260
     77  O        -23.8210    3.6890   -7.1680 O.2   128  LEU128     -0.2867
     78  CB       -25.7990    6.3070   -7.6120 C.3   128  LEU128      0.0270
     79  CG       -26.7550    5.1230   -7.4660 C.3   128  LEU128      0.0019
     80  CD1      -26.8310    4.7230   -6.0060 C.3   128  LEU128      0.0001
     81  CD2      -28.1410    5.4850   -8.0030 C.3   128  LEU128      0.0001
     82  N        -24.6240    1.8700    0.2440 N.3   138  LEU138     -0.1245
     83  CA       -25.9950    2.3690    0.3560 C.3   138  LEU138      0.1561
     84  C        -26.6140    2.3230    1.7510 C.2   138  LEU138      0.2260
     85  O        -26.2270    1.5290    2.6120 O.2   138  LEU138     -0.2867
     86  CB       -26.9070    1.5940   -0.5990 C.3   138  LEU138      0.0270
     87  CG       -26.4940    1.5080   -2.0710 C.3   138  LEU138      0.0019
     88  CD1      -27.4950    0.6460   -2.8170 C.3   138  LEU138      0.0001
     89  CD2      -26.4390    2.9020   -2.6890 C.3   138  LEU138      0.0001
     90  N        -30.6720    2.6660    3.3150 N.3   140  VAL140     -0.1245
     91  CA       -32.0890    2.8310    3.0420 C.3   140  VAL140      0.1561
     92  C        -32.8910    2.7950    4.3180 C.2   140  VAL140      0.2260
     93  O        -32.7000    1.9140    5.1590 O.2   140  VAL140     -0.2867
     94  CB       -32.6360    1.7170    2.1300 C.3   140  VAL140      0.0252
     95  CG1      -34.0930    2.0200    1.7710 C.3   140  VAL140      0.0019
     96  CG2      -31.7800    1.5880    0.8750 C.3   140  VAL140      0.0019
     97  N        -30.2100   -4.8560   -1.6240 N.3   195  LEU195     -0.1231
     98  CA       -31.3040   -4.2300   -2.3570 C.3   195  LEU195      0.1693
     99  C        -32.3280   -5.3640   -2.3520 C.2   195  LEU195      0.2593
    100  O        -31.9290   -6.5320   -2.4200 O.2   195  LEU195     -0.2718
    101  CB       -30.8770   -3.9230   -3.7930 C.3   195  LEU195      0.0284
    102  CG       -29.7480   -2.9090   -3.9610 C.3   195  LEU195      0.0019
    103  CD1      -29.3890   -2.7670   -5.4350 C.3   195  LEU195      0.0001
    104  CD2      -30.1910   -1.5800   -3.3880 C.3   195  LEU195      0.0001
    105  N        -33.6200   -5.0510   -2.2670 N.am  196  THR196     -0.1939
    106  CA       -34.6350   -6.1090   -2.2280 C.3   196  THR196      0.2028
    107  C        -35.0890   -6.6810   -3.5710 C.2   196  THR196      0.2642
    108  O        -35.9780   -7.5340   -3.6160 O.2   196  THR196     -0.2714
    109  CB       -35.8880   -5.6690   -1.4480 C.3   196  THR196      0.1808
    110  OG1      -36.5290   -4.5910   -2.1340 O.3   196  THR196     -0.2208
    111  CG2      -35.5010   -5.2210   -0.0400 C.3   196  THR196      0.0379
    112  N        -34.5050   -6.2060   -4.6650 N.am  197  HIS197     -0.1959
    113  CA       -34.8040   -6.7530   -5.9850 C.3   197  HIS197      0.1772
    114  C        -33.5400   -6.5970   -6.8070 C.2   197  HIS197      0.2462
    115  O        -32.6350   -5.8480   -6.4290 O.2   197  HIS197     -0.2730
    116  CB       -36.0280   -6.0860   -6.6520 C.3   197  HIS197      0.0785
    117  CG       -35.9080   -4.6090   -6.8700 C.ar  197  HIS197      0.0821
    118  ND1      -35.0380   -4.0530   -7.7810 N.ar  197  HIS197     -0.2267
    119  CD2      -36.5900   -3.5730   -6.3260 C.ar  197  HIS197      0.1154
    120  CE1      -35.1880   -2.7400   -7.7910 C.ar  197  HIS197      0.1986
    121  NE2      -36.1250   -2.4230   -6.9150 N.ar  197  HIS197     -0.2212
    122  N        -33.4260   -7.3380   -7.9180 N.am  198  PRO198     -0.2716
    123  CA       -32.2340   -7.2550   -8.7700 C.3   198  PRO198      0.1521
    124  C        -31.8240   -5.8070   -8.9870 C.2   198  PRO198      0.2440
    125  O        -32.6780   -4.9430   -9.1510 O.2   198  PRO198     -0.2731
    126  CB       -32.6960   -7.9260  -10.0560 C.3   198  PRO198      0.0310
    127  CG       -33.6040   -9.0090   -9.5310 C.3   198  PRO198      0.0237
    128  CD       -34.4180   -8.2710   -8.4880 C.3   198  PRO198      0.0939
    129  N        -30.5060   -5.5320   -9.0170 N.am  199  PRO199     -0.2727
    130  CA       -29.3550   -6.4400   -8.9030 C.3   199  PRO199      0.1402
    131  C        -29.0740   -7.1080   -7.5490 C.2   199  PRO199      0.2269
    132  O        -28.1200   -7.8840   -7.4330 O.2   199  PRO199     -0.2865
    133  CB       -28.1920   -5.5670   -9.3710 C.3   199  PRO199      0.0296
    134  CG       -28.5750   -4.2350   -8.8760 C.3   199  PRO199      0.0237
    135  CD       -30.0460   -4.1510   -9.2410 C.3   199  PRO199      0.0939
    136  N        -29.4740   -1.1680    6.3690 N.3   206  TRP206     -0.1241
    137  CA       -30.8770   -0.8670    6.5820 C.3   206  TRP206      0.1605
    138  C        -31.2110   -0.1660    7.8910 C.2   206  TRP206      0.2264
    139  O        -30.6510   -0.4720    8.9460 O.2   206  TRP206     -0.2867
    140  CB       -31.7130   -2.1520    6.4840 C.3   206  TRP206      0.0550
    141  CG       -31.9700   -2.5800    5.0810 C.ar  206  TRP206      0.0003
    142  CD1      -31.2410   -3.4630    4.3420 C.ar  206  TRP206      0.0946
    143  CD2      -33.0060   -2.0970    4.2250 C.ar  206  TRP206      0.0152
    144  NE1      -31.7600   -3.5600    3.0690 N.ar  206  TRP206     -0.2442
    145  CE2      -32.8450   -2.7280    2.9730 C.ar  206  TRP206      0.0810
    146  CE3      -34.0590   -1.1850    4.3930 C.ar  206  TRP206      0.0012
    147  CZ2      -33.6970   -2.4760    1.8940 C.ar  206  TRP206      0.0191
    148  CZ3      -34.9020   -0.9370    3.3210 C.ar  206  TRP206      0.0001
    149  CH2      -34.7160   -1.5790    2.0880 C.ar  206  TRP206      0.0015
@<TRIPOS>BOND
     1    18    16   am
     2   126   127    1
     3   126   123    1
     4   127   128    1
     5   133   130    1
     6   133   134    1
     7    16    15    1
     8    16    17    2
     9     4     3    2
    10   135   129    1
    11   135   134    1
    12     7     9   ar
    13     7     6   ar
    14   125   124    2
    15     1     2    1
    16    15    12    1
    17   129   124   am
    18   129   130    1
    19   124   123    1
    20   130   131    1
    21     9    10   ar
    22   123   122    1
    23     5     6    1
    24     5     2    1
    25     6     8   ar
    26   128   122    1
    27     3     2    1
    28    10     8   ar
    29    81    79    1
    30   122   114   am
    31    11    12    1
    32    76    77    2
    33    76    75    1
    34   120   118   ar
    35   120   121   ar
    36   118   117   ar
    37    12    13    1
    38    14    13    2
    39    78    79    1
    40    78    75    1
    41    38    36   am
    42   131   132    2
    43    74    75    1
    44    79    80    1
    45   121   119   ar
    46   117   116    1
    47   117   119   ar
    48   114   115    2
    49   114   113    1
    50   116   113    1
    51    36    37    2
    52    36    35    1
    53   113   112    1
    54    22    21    2
    55    26    28   ar
    56    26    24   ar
    57    35    34    1
    58    28    29   ar
    59   103   102    1
    60    34    31    1
    61    23    24    1
    62    23    20    1
    63    21    20    1
    64    21    30   am
    65    24    25   ar
    66   112   107   am
    67    43    44    1
    68    43    40    1
    69    29    27   ar
    70    45    44   ar
    71    45    47   ar
    72    20    19    1
    73    31    30    1
    74    31    32    1
    75    44    46   ar
    76   102   101    1
    77   102   104    1
    78   101    98    1
    79    47    48   ar
    80   108   107    2
    81   107   106    1
    82    25    27   ar
    83    40    39    1
    84    40    41    1
    85    46    48   ar
    86    57    55   ar
    87    57    58   ar
    88    32    33    2
    89    55    54   ar
    90    88    87    1
    91    89    87    1
    92    58    56   ar
    93    41    42    2
    94   100    99    2
    95    98    99    1
    96    98    97    1
    97    99   105   am
    98   105   106    1
    99   106   109    1
   100   110   109    1
   101    87    86    1
   102    50    49    1
   103    50    51    1
   104    50    53    1
   105    54    56   ar
   106    54    53    1
   107    73    70    1
   108    51    52    2
   109   109   111    1
   110    72    71    2
   111    86    83    1
   112    71    70    1
   113    70    69    1
   114    62    61    2
   115    65    67   ar
   116    65    64   ar
   117    82    83    1
   118    63    64    1
   119    63    60    1
   120    83    84    1
   121    61    60    1
   122    67    68   ar
   123    64    66   ar
   124    96    94    1
   125    59    60    1
   126    84    85    2
   127    95    94    1
   128   147   149   ar
   129   147   145   ar
   130    68    66   ar
   131   149   148   ar
   132    94    91    1
   133   145   144   ar
   134   145   143   ar
   135    91    90    1
   136    91    92    1
   137   144   142   ar
   138   148   146   ar
   139   143   146   ar
   140   143   141   ar
   141    92    93    2
   142   142   141   ar
   143   141   140    1
   144   136   137    1
   145   140   137    1
   146   137   138    1
   147   138   139    2
