@<TRIPOS>MOLECULE
tmp/2nngA00.pdb
 121 119 0 0 0
SMALL
GASTEIGER

@<TRIPOS>ATOM
      1  N        -12.5810    6.2330   11.1400 N.3    90  GLN90      -0.1245
      2  CA       -12.3180    5.0810   10.3070 C.3    90  GLN90       0.1566
      3  C        -12.6180    3.8200   11.0970 C.2    90  GLN90       0.2260
      4  O        -12.6620    3.8590   12.3310 O.2    90  GLN90      -0.2867
      5  CB       -10.8630    5.0560    9.8180 C.3    90  GLN90       0.0367
      6  CG        -9.8190    5.1910   10.9180 C.3    90  GLN90       0.0905
      7  CD        -9.0560    3.9140   11.1230 C.2    90  GLN90       0.2608
      8  OE1       -9.6030    2.8300   11.1480 O.2    90  GLN90      -0.2717
      9  NE2       -7.7560    4.0900   11.3540 N.am   90  GLN90      -0.0878
     10  N        -11.1930   -0.4600   10.8820 N.3    92  HIS92      -0.1241
     11  CA       -10.3290   -1.4650   10.3110 C.3    92  HIS92       0.1621
     12  C        -10.3820   -2.7400   11.1270 C.2    92  HIS92       0.2264
     13  O        -11.0310   -2.7440   12.1710 O.2    92  HIS92      -0.2867
     14  CB        -8.9000   -0.9700   10.2520 C.3    92  HIS92       0.0745
     15  CG        -8.3160   -0.6910   11.5770 C.ar   92  HIS92       0.0817
     16  ND1       -8.4750    0.5390   12.2090 N.ar   92  HIS92      -0.2268
     17  CD2       -7.6730   -1.4840   12.4740 C.ar   92  HIS92       0.1154
     18  CE1       -7.9050    0.4660   13.4250 C.ar   92  HIS92       0.1986
     19  NE2       -7.4220   -0.7560   13.6020 N.ar   92  HIS92      -0.2212
     20  N         -8.0690   -6.4500   12.4430 N.3    94  HIS94      -0.1241
     21  CA        -6.8880   -7.2630   12.6120 C.3    94  HIS94       0.1621
     22  C         -7.3090   -8.7150   12.5090 C.2    94  HIS94       0.2264
     23  O         -8.3920   -9.0520   13.0340 O.2    94  HIS94      -0.2867
     24  CB        -6.1750   -6.9940   13.9370 C.3    94  HIS94       0.0745
     25  CG        -5.9030   -5.5650   14.2080 C.ar   94  HIS94       0.0817
     26  ND1       -4.6650   -5.0000   13.9620 N.ar   94  HIS94      -0.2268
     27  CD2       -6.6780   -4.5450   14.6130 C.ar   94  HIS94       0.1154
     28  CE1       -4.7360   -3.7060   14.2700 C.ar   94  HIS94       0.1986
     29  NE2       -5.9430   -3.3640   14.6700 N.ar   94  HIS94      -0.2212
     30  N        -11.9860   -2.6220   14.8250 N.3   117  HIS117     -0.1241
     31  CA       -11.7350   -1.3750   15.5350 C.3   117  HIS117      0.1621
     32  C        -12.4260   -0.2240   14.8430 C.2   117  HIS117      0.2264
     33  O        -12.0460    0.1230   13.7340 O.2   117  HIS117     -0.2867
     34  CB       -10.2230   -1.1140   15.6150 C.3   117  HIS117      0.0745
     35  CG        -9.5340   -2.0850   16.5060 C.ar  117  HIS117      0.0817
     36  ND1       -8.1740   -2.3120   16.4820 N.ar  117  HIS117     -0.2268
     37  CD2      -10.0320   -2.9040   17.4540 C.ar  117  HIS117      0.1154
     38  CE1       -7.8690   -3.2320   17.3780 C.ar  117  HIS117      0.1986
     39  NE2       -8.9900   -3.6060   18.0230 N.ar  117  HIS117     -0.2212
     40  N        -12.6790    3.5670   15.1530 N.3   119  VAL119     -0.1245
     41  CA       -11.8260    4.5850   15.7540 C.3   119  VAL119      0.1561
     42  C        -12.5050    5.9480   15.7860 C.2   119  VAL119      0.2260
     43  O        -13.0150    6.4140   14.7560 O.2   119  VAL119     -0.2867
     44  CB       -10.5020    4.6790   14.9410 C.3   119  VAL119      0.0252
     45  CG1       -9.5390    5.6540   15.5720 C.3   119  VAL119      0.0019
     46  CG2       -9.8520    3.3010   14.7780 C.3   119  VAL119      0.0019
     47  N         -8.0490   15.0080   14.7360 N.3   128  PHE128     -0.1241
     48  CA        -7.4210   13.7680   15.1940 C.3   128  PHE128      0.1605
     49  C         -5.9990   14.0080   15.6610 C.2   128  PHE128      0.2264
     50  O         -5.5820   13.3860   16.6390 O.2   128  PHE128     -0.2867
     51  CB        -7.4680   12.7700   14.0350 C.3   128  PHE128      0.0534
     52  CG        -6.9600   11.4090   14.4010 C.ar  128  PHE128     -0.0203
     53  CD1       -7.8190   10.4360   14.8600 C.ar  128  PHE128     -0.0042
     54  CD2       -5.6240   11.0600   14.2800 C.ar  128  PHE128     -0.0042
     55  CE1       -7.3520    9.1810   15.1890 C.ar  128  PHE128     -0.0003
     56  CE2       -5.1600    9.8330   14.6410 C.ar  128  PHE128     -0.0003
     57  CZ        -6.0300    8.8700   15.0700 C.ar  128  PHE128     -0.0000
     58  N         -4.6200   13.0020   19.4480 N.3   132  VAL132     -0.1245
     59  CA        -3.6010   12.0340   19.8480 C.3   132  VAL132      0.1561
     60  C         -2.4330   12.6660   20.6160 C.2   132  VAL132      0.2260
     61  O         -1.3800   12.0300   20.8480 O.2   132  VAL132     -0.2867
     62  CB        -3.0820   11.1710   18.6950 C.3   132  VAL132      0.0252
     63  CG1       -4.2450   10.4260   18.0760 C.3   132  VAL132      0.0019
     64  CG2       -2.3630   11.9620   17.6390 C.3   132  VAL132      0.0019
     65  N        -11.8030    3.7980   20.9700 N.3   140  VAL140     -0.1245
     66  CA       -11.8460    2.7320   19.9740 C.3   140  VAL140      0.1561
     67  C        -12.8390    1.6920   20.5000 C.2   140  VAL140      0.2260
     68  O        -12.7060    1.1890   21.6020 O.2   140  VAL140     -0.2867
     69  CB       -10.4920    2.1100   19.6310 C.3   140  VAL140      0.0252
     70  CG1      -10.6410    1.0860   18.5280 C.3   140  VAL140      0.0019
     71  CG2       -9.5100    3.1660   19.1510 C.3   140  VAL140      0.0019
     72  N         -2.9390    3.1630   21.1320 N.3   195  LEU195     -0.1231
     73  CA        -2.9860    2.5980   19.7960 C.3   195  LEU195      0.1693
     74  C         -2.2300    1.2520   19.8160 C.2   195  LEU195      0.2593
     75  O         -1.2140    1.0980   20.5300 O.2   195  LEU195     -0.2718
     76  CB        -2.3020    3.5390   18.8230 C.3   195  LEU195      0.0284
     77  CG        -2.8050    4.9620   18.7030 C.3   195  LEU195      0.0019
     78  CD1       -1.9330    5.7600   17.7370 C.3   195  LEU195      0.0001
     79  CD2       -4.2520    4.9490   18.2330 C.3   195  LEU195      0.0001
     80  N         -2.6780    0.2830   19.0350 N.am  196  THR196     -0.1939
     81  CA        -2.0420   -1.0260   19.0080 C.3   196  THR196      0.2028
     82  C         -1.0250   -1.1570   17.8800 C.2   196  THR196      0.2643
     83  O         -0.4380   -2.2290   17.7330 O.2   196  THR196     -0.2714
     84  CB        -3.0430   -2.1790   18.9010 C.3   196  THR196      0.1808
     85  OG1       -3.6480   -2.1010   17.6030 O.3   196  THR196     -0.2208
     86  CG2       -4.1060   -2.1220   19.9730 C.3   196  THR196      0.0379
     87  N         -0.8270   -0.1020   17.1230 N.am  197  THR197     -0.1937
     88  CA         0.2310   -0.0760   16.1310 C.3   197  THR197      0.2013
     89  C          1.0900    1.1620   16.4240 C.2   197  THR197      0.2484
     90  O          0.5860    2.0930   17.0170 O.2   197  THR197     -0.2729
     91  CB        -0.2310    0.0450   14.6800 C.3   197  THR197      0.1807
     92  OG1       -0.7990    1.3200   14.4320 O.3   197  THR197     -0.2208
     93  CG2       -1.2700   -0.9770   14.2980 C.3   197  THR197      0.0379
     94  N          2.3340    1.1910   15.9330 N.am  198  PRO198     -0.2715
     95  CA         3.0870    2.4550   15.9670 C.3   198  PRO198      0.1521
     96  C          2.2140    3.5880   15.4070 C.2   198  PRO198      0.2440
     97  O          1.4980    3.3470   14.4370 O.2   198  PRO198     -0.2731
     98  CB         4.2950    2.1490   15.0790 C.3   198  PRO198      0.0310
     99  CG         4.5270    0.6850   15.3460 C.3   198  PRO198      0.0237
    100  CD         3.1070    0.1050   15.3490 C.3   198  PRO198      0.0939
    101  N          2.2370    4.7620   16.0270 N.am  199  PRO199     -0.2727
    102  CA         3.1200    5.1980   17.0910 C.3   199  PRO199      0.1402
    103  C          2.7370    4.8130   18.5060 C.2   199  PRO199      0.2269
    104  O          3.4150    5.3190   19.4300 O.2   199  PRO199     -0.2865
    105  CB         3.0970    6.7210   16.8590 C.3   199  PRO199      0.0296
    106  CG         1.7080    7.0010   16.3730 C.3   199  PRO199      0.0237
    107  CD         1.4000    5.8480   15.4700 C.3   199  PRO199      0.0939
    108  N        -10.4480    2.3500   25.5020 N.3   205  TRP205     -0.1241
    109  CA       -10.9130    1.1450   24.8200 C.3   205  TRP205      0.1605
    110  C        -12.2730    0.7360   25.3290 C.2   205  TRP205      0.2264
    111  O        -12.4900    0.6940   26.5500 O.2   205  TRP205     -0.2867
    112  CB        -9.8900   -0.0050   25.0130 C.3   205  TRP205      0.0550
    113  CG        -8.7720    0.1560   24.0360 C.ar  205  TRP205      0.0003
    114  CD1       -7.5550    0.7360   24.2060 C.ar  205  TRP205      0.0946
    115  CD2       -8.8040   -0.2790   22.6820 C.ar  205  TRP205      0.0152
    116  NE1       -6.8380    0.6870   23.0450 N.ar  205  TRP205     -0.2442
    117  CE2       -7.5920    0.0650   22.0850 C.ar  205  TRP205      0.0810
    118  CE3       -9.7760   -0.9430   21.8940 C.ar  205  TRP205      0.0012
    119  CZ2       -7.3110   -0.2180   20.7530 C.ar  205  TRP205      0.0191
    120  CZ3       -9.5000   -1.2120   20.6250 C.ar  205  TRP205      0.0001
    121  CH2       -8.2830   -0.8720   20.0240 C.ar  205  TRP205      0.0015
@<TRIPOS>BOND
     1     5     2    1
     2     5     6    1
     3    14    11    1
     4    14    15    1
     5     2     3    1
     6     2     1    1
     7    11    10    1
     8    11    12    1
     9     6     7    1
    10     3     4    2
    11     7     8    2
    12     7     9   am
    13    12    13    2
    14    15    16   ar
    15    15    17   ar
    16    16    18   ar
    17    20    21    1
    18    17    19   ar
    19    22    21    1
    20    22    23    2
    21    21    24    1
    22    18    19   ar
    23    33    32    2
    24    24    25    1
    25    26    25   ar
    26    26    28   ar
    27    51    52    1
    28    51    48    1
    29    25    27   ar
    30    28    29   ar
    31    54    52   ar
    32    54    56   ar
    33    93    91    1
    34    52    53   ar
    35    92    91    1
    36    97    96    2
    37    27    29   ar
    38    56    57   ar
    39    91    88    1
    40    47    48    1
    41    43    42    2
    42    46    44    1
    43    30    31    1
    44    32    31    1
    45    53    55   ar
    46    44    45    1
    47    44    41    1
    48    57    55   ar
    49    98    99    1
    50    98    95    1
    51    40    41    1
    52    48    49    1
    53    99   100    1
    54   100    94    1
    55    96    95    1
    56    96   101   am
    57   107   101    1
    58   107   106    1
    59    31    34    1
    60    34    35    1
    61    49    50    2
    62    41    42    1
    63    94    95    1
    64    94    89   am
    65   101   102    1
    66    88    89    1
    67    88    87    1
    68   106   105    1
    69    89    90    2
    70    36    35   ar
    71    36    38   ar
    72    35    37   ar
    73   105   102    1
    74   102   103    1
    75    87    82   am
    76    38    39   ar
    77    37    39   ar
    78    85    84    1
    79    64    62    1
    80    83    82    2
    81    78    77    1
    82    82    81    1
    83    63    62    1
    84    79    77    1
    85   103   104    2
    86    70    69    1
    87    62    59    1
    88    77    76    1
    89    76    73    1
    90    84    81    1
    91    84    86    1
    92    81    80    1
    93    80    74   am
    94    71    69    1
    95    58    59    1
    96    69    66    1
    97    73    74    1
    98    73    72    1
    99    74    75    2
   100    59    60    1
   101    66    67    1
   102    66    65    1
   103   121   120   ar
   104   121   119   ar
   105    67    68    2
   106    60    61    2
   107   120   118   ar
   108   119   117   ar
   109   118   115   ar
   110   117   115   ar
   111   117   116   ar
   112   115   113   ar
   113   116   114   ar
   114   113   114   ar
   115   113   112    1
   116   109   112    1
   117   109   110    1
   118   109   108    1
   119   110   111    2
