@<TRIPOS>MOLECULE
tmp/2nnhB01.pdb
 164 155 0 0 0
SMALL
GASTEIGER

@<TRIPOS>ATOM
      1  N        -14.5520   62.2250   -4.6980 N.3    70  ARG70      -0.1231
      2  CA       -13.7060   62.0470   -3.5230 C.3    70  ARG70       0.1694
      3  C        -12.6170   63.1260   -3.6580 C.2    70  ARG70       0.2593
      4  O        -12.1170   63.3570   -4.7570 O.2    70  ARG70      -0.2718
      5  CB       -13.1040   60.6340   -3.5350 C.3    70  ARG70       0.0321
      6  CG       -12.6620   60.1260   -2.1740 C.3    70  ARG70       0.0489
      7  CD       -13.8460   60.0550   -1.2130 C.3    70  ARG70       0.2205
      8  NE       -14.4440   58.7220   -1.1110 N.pl3  70  ARG70      -0.0865
      9  CZ       -15.6200   58.4840   -0.5380 C.cat  70  ARG70       0.5346
     10  NH1      -16.3220   59.4910   -0.0280 N.pl3  70  ARG70       0.1354
     11  NH2      -16.0890   57.2460   -0.4550 N.pl3  70  ARG70       0.1354
     12  N        -12.2480   63.7700   -2.5510 N.am   71  GLY71      -0.1942
     13  CA       -11.2610   64.8530   -2.5810 C.3    71  GLY71       0.2014
     14  C         -9.7460   64.6690   -2.7330 C.2    71  GLY71       0.2639
     15  O         -9.0720   65.5710   -3.2330 O.2    71  GLY71      -0.2714
     16  N         -9.1880   63.5470   -2.2900 N.am   72  ASN72      -0.1958
     17  CA        -7.7430   63.3120   -2.4110 C.3    72  ASN72       0.1819
     18  C         -6.8900   64.2650   -1.5710 C.2    72  ASN72       0.2622
     19  O         -6.3320   65.2360   -2.0800 O.2    72  ASN72      -0.2715
     20  CB        -7.3070   63.4160   -3.8740 C.3    72  ASN72       0.1195
     21  CG        -5.8880   62.9250   -4.0950 C.2    72  ASN72       0.2630
     22  OD1       -5.5460   61.8030   -3.7180 O.2    72  ASN72      -0.2716
     23  ND2       -5.0550   63.7580   -4.7140 N.am   72  ASN72      -0.0877
     24  N         -6.7850   63.9630   -0.2810 N.am   73  SER73      -0.1950
     25  CA        -6.0160   64.7640    0.6620 C.3    73  SER73       0.1924
     26  C         -4.5850   64.2500    0.7230 C.2    73  SER73       0.2314
     27  O         -4.2840   63.1820    0.2000 O.2    73  SER73      -0.2863
     28  CB        -6.6350   64.6400    2.0430 C.3    73  SER73       0.2116
     29  OG        -6.5750   63.2880    2.4680 O.3    73  SER73      -0.2180
     30  N         -4.3590   60.8900    2.2960 N.3    76  SER76      -0.1217
     31  CA        -5.0560   59.9810    1.3970 C.3    76  SER76       0.1889
     32  C         -4.1620   59.5810    0.2300 C.2    76  SER76       0.2288
     33  O         -4.1470   58.4210   -0.1760 O.2    76  SER76      -0.2866
     34  CB        -6.3260   60.6470    0.8690 C.3    76  SER76       0.2089
     35  OG        -6.9420   59.8400   -0.1110 O.3    76  SER76      -0.2183
     36  N         -1.2140   56.9880    0.9750 N.3    79  ILE79      -0.1231
     37  CA        -1.6810   55.6290    1.2670 C.3    79  ILE79       0.1692
     38  C         -2.3360   54.8810    0.1020 C.2    79  ILE79       0.2592
     39  O         -1.8020   53.8820   -0.3860 O.2    79  ILE79      -0.2718
     40  CB        -2.6920   55.6220    2.4440 C.3    79  ILE79       0.0266
     41  CG1       -2.0370   56.1820    3.7040 C.3    79  ILE79       0.0019
     42  CG2       -3.1720   54.2050    2.7110 C.3    79  ILE79       0.0020
     43  CD1       -0.7820   55.4380    4.1000 C.3    79  ILE79       0.0001
     44  N         -3.5010   55.3720   -0.3190 N.am   80  THR80      -0.1953
     45  CA        -4.2860   54.7680   -1.3930 C.3    80  THR80       0.1897
     46  C         -3.7740   55.0510   -2.8050 C.2    80  THR80       0.2313
     47  O         -3.8370   54.1790   -3.6780 O.2    80  THR80      -0.2863
     48  CB        -5.7460   55.2380   -1.3170 C.3    80  THR80       0.1794
     49  OG1       -5.8130   56.6330   -1.6310 O.3    80  THR80      -0.2208
     50  CG2       -6.3030   55.0230    0.0830 C.3    80  THR80       0.0378
     51  N        -12.5060   53.1750   -2.6840 N.3    86  ILE86      -0.1231
     52  CA       -12.7980   54.2350   -1.7260 C.3    86  ILE86       0.1692
     53  C        -12.4080   55.6440   -2.1680 C.2    86  ILE86       0.2592
     54  O        -13.2340   56.5680   -2.1550 O.2    86  ILE86      -0.2718
     55  CB       -12.1090   53.9800   -0.3730 C.3    86  ILE86       0.0266
     56  CG1      -12.5760   52.6480    0.2170 C.3    86  ILE86       0.0019
     57  CG2      -12.4280   55.1340    0.5910 C.3    86  ILE86       0.0020
     58  CD1      -11.8310   52.2430    1.4700 C.3    86  ILE86       0.0001
     59  N        -11.1510   55.8060   -2.5600 N.am   87  SER87      -0.1952
     60  CA       -10.6420   57.1200   -2.9440 C.3    87  SER87       0.1924
     61  C        -10.5280   57.4320   -4.4280 C.2    87  SER87       0.2314
     62  O        -10.1030   58.5190   -4.7880 O.2    87  SER87      -0.2863
     63  CB        -9.2830   57.3250   -2.2920 C.3    87  SER87       0.2116
     64  OG        -8.4750   56.1900   -2.5270 O.3    87  SER87      -0.2180
     65  N         -5.9940   51.8740   11.6100 N.3   178  PHE178     -0.1241
     66  CA        -7.3050   52.4880   11.8280 C.3   178  PHE178      0.1605
     67  C         -7.2260   53.4140   13.0390 C.2   178  PHE178      0.2264
     68  O         -7.6180   54.5750   12.9720 O.2   178  PHE178     -0.2867
     69  CB        -8.3940   51.4050   12.0670 C.3   178  PHE178      0.0534
     70  CG        -9.6960   51.9570   12.6080 C.ar  178  PHE178     -0.0203
     71  CD1       -9.8970   52.0870   13.9750 C.ar  178  PHE178     -0.0042
     72  CD2      -10.6680   52.4520   11.7470 C.ar  178  PHE178     -0.0042
     73  CE1      -11.0420   52.7130   14.4760 C.ar  178  PHE178     -0.0003
     74  CE2      -11.8100   53.0770   12.2380 C.ar  178  PHE178     -0.0003
     75  CZ       -11.9960   53.2100   13.6040 C.ar  178  PHE178     -0.0000
     76  N         -9.2330   47.9340    0.5650 N.3   266  ASP266     -0.1239
     77  CA       -10.3360   48.8110    0.8990 C.3   266  ASP266      0.1674
     78  C        -11.5130   48.0520    1.5210 C.2   266  ASP266      0.2266
     79  O        -12.3030   48.6380    2.2810 O.2   266  ASP266     -0.2867
     80  CB       -10.8030   49.5760   -0.3410 C.3   266  ASP266      0.1410
     81  CG        -9.8140   50.6360   -0.7760 C.2   266  ASP266      0.3668
     82  OD1      -10.1200   51.3920   -1.7200 O.co2 266  ASP266     -0.2456
     83  OD2       -8.7260   50.7190   -0.1730 O.co2 266  ASP266     -0.2456
     84  N        -10.4340   47.5910    5.2410 N.3   269  VAL269     -0.1231
     85  CA       -10.5090   48.9040    5.8500 C.3   269  VAL269      0.1692
     86  C        -11.9250   49.4270    6.0400 C.2   269  VAL269      0.2591
     87  O        -12.3400   49.7300    7.1550 O.2   269  VAL269     -0.2718
     88  CB        -9.6850   49.9180    5.0200 C.3   269  VAL269      0.0266
     89  CG1       -9.9280   51.3490    5.5120 C.3   269  VAL269      0.0020
     90  CG2       -8.2050   49.5490    5.1080 C.3   269  VAL269      0.0020
     91  N        -12.6700   49.5430    4.9550 N.am  270  ALA270     -0.1980
     92  CA       -14.0320   50.0560    5.0560 C.3   270  ALA270      0.1597
     93  C        -15.0230   49.0460    5.6590 C.2   270  ALA270      0.2287
     94  O        -16.1490   49.4060    6.0170 O.2   270  ALA270     -0.2864
     95  CB       -14.5140   50.5050    3.6770 C.3   270  ALA270      0.0319
     96  N        -13.3030   47.3570   10.8480 N.3   273  GLU273     -0.1231
     97  CA       -13.5190   48.1490   12.0470 C.3   273  GLU273      0.1699
     98  C        -14.9370   48.6650   12.1670 C.2   273  GLU273      0.2592
     99  O        -15.4610   48.7880   13.2720 O.2   273  GLU273     -0.2718
    100  CB       -12.5440   49.3290   12.0870 C.3   273  GLU273      0.0402
    101  CG       -12.0540   49.6180   13.4820 C.3   273  GLU273      0.1161
    102  CD       -11.3090   48.4340   14.0820 C.2   273  GLU273      0.3649
    103  OE1      -11.4350   48.2340   15.3130 O.co2 273  GLU273     -0.2457
    104  OE2      -10.5990   47.7120   13.3300 O.co2 273  GLU273     -0.2457
    105  N        -15.5490   48.9630   11.0260 N.am  274  THR274     -0.1953
    106  CA       -16.9080   49.4780   10.9890 C.3   274  THR274      0.1897
    107  C        -17.9630   48.5570   11.5670 C.2   274  THR274      0.2313
    108  O        -18.7190   48.9610   12.4510 O.2   274  THR274     -0.2863
    109  CB       -17.3570   49.8000    9.5600 C.3   274  THR274      0.1794
    110  OG1      -16.8330   48.8120    8.6610 O.3   274  THR274     -0.2208
    111  CG2      -16.9070   51.1950    9.1630 C.3   274  THR274      0.0378
    112  N        -20.4600   57.0600   11.9930 N.3   335  VAL335     -0.1245
    113  CA       -19.7430   58.1110   11.2840 C.3   335  VAL335      0.1561
    114  C        -20.5690   59.4020   11.2330 C.2   335  VAL335      0.2260
    115  O        -21.2030   59.7090   10.2210 O.2   335  VAL335     -0.2867
    116  CB       -19.4100   57.6530    9.8530 C.3   335  VAL335      0.0252
    117  CG1      -18.4690   58.6460    9.1960 C.3   335  VAL335      0.0019
    118  CG2      -18.7660   56.2710    9.8910 C.3   335  VAL335      0.0019
    119  N        -18.3870   60.5270    5.5560 N.3   339  VAL339     -0.1231
    120  CA       -17.0600   60.5600    4.9680 C.3   339  VAL339      0.1678
    121  C        -17.0860   61.7170    3.9860 C.2   339  VAL339      0.2434
    122  O        -17.9990   61.8150    3.1720 O.2   339  VAL339     -0.2733
    123  CB       -16.7770   59.2620    4.2290 C.3   339  VAL339      0.0265
    124  CG1      -15.4750   59.3590    3.4840 C.3   339  VAL339      0.0020
    125  CG2      -16.7480   58.1070    5.2310 C.3   339  VAL339      0.0020
    126  N        -16.0860   62.6160    4.0450 N.am  340  PRO340     -0.2718
    127  CA       -16.0810   63.7570    3.1220 C.3   340  PRO340      0.1535
    128  C        -16.0660   63.4800    1.6370 C.2   340  PRO340      0.2598
    129  O        -15.4590   62.5190    1.1640 O.2   340  PRO340     -0.2715
    130  CB       -14.8710   64.5780    3.5750 C.3   340  PRO340      0.0310
    131  CG       -13.9960   63.5930    4.2730 C.3   340  PRO340      0.0237
    132  CD       -14.9700   62.7030    5.0050 C.3   340  PRO340      0.0939
    133  N        -16.7640   64.3400    0.9050 N.am  341  HIS341     -0.1974
    134  CA       -16.8280   64.2520   -0.5440 C.3   341  HIS341      0.1656
    135  C        -16.1600   65.4840   -1.1480 C.2   341  HIS341      0.2291
    136  O        -15.5920   66.3230   -0.4430 O.2   341  HIS341     -0.2864
    137  CB       -18.2800   64.2170   -1.0340 C.3   341  HIS341      0.0771
    138  CG       -19.0020   62.9400   -0.7440 C.ar  341  HIS341      0.0820
    139  ND1      -20.2240   62.6410   -1.3040 N.ar  341  HIS341     -0.2267
    140  CD2      -18.6820   61.8880    0.0430 C.ar  341  HIS341      0.1154
    141  CE1      -20.6250   61.4590   -0.8770 C.ar  341  HIS341      0.1986
    142  NE2      -19.7060   60.9810   -0.0580 N.ar  341  HIS341     -0.2212
    143  N        -14.5340   70.7190   -0.8970 N.3   359  THR359     -0.1218
    144  CA       -14.8620   69.6000   -0.0160 C.3   359  THR359      0.1862
    145  C        -16.2530   69.7070    0.5950 C.2   359  THR359      0.2287
    146  O        -16.6760   70.7770    1.0270 O.2   359  THR359     -0.2866
    147  CB       -13.8000   69.4530    1.0930 C.3   359  THR359      0.1770
    148  OG1      -12.5770   68.9990    0.5000 O.3   359  THR359     -0.2211
    149  CG2      -14.2460   68.4560    2.1600 C.3   359  THR359      0.0375
    150  N        -13.1340   60.5740   13.2280 N.3   449  ILE449     -0.1231
    151  CA       -14.1700   60.5090   12.2160 C.3   449  ILE449      0.1692
    152  C        -15.1100   59.3280   12.4860 C.2   449  ILE449      0.2591
    153  O        -16.2690   59.3340   12.0750 O.2   449  ILE449     -0.2718
    154  CB       -13.5610   60.3730   10.8040 C.3   449  ILE449      0.0266
    155  CG1      -14.6440   60.6320    9.7540 C.3   449  ILE449      0.0019
    156  CG2      -12.9450   58.9920   10.6280 C.3   449  ILE449      0.0020
    157  CD1      -14.1610   60.5470    8.3310 C.3   449  ILE449      0.0001
    158  N        -14.6000   58.3290   13.1940 N.am  450  VAL450     -0.1980
    159  CA       -15.3700   57.1350   13.5380 C.3   450  VAL450      0.1595
    160  C        -15.6450   57.0620   15.0490 C.2   450  VAL450      0.2287
    161  O        -14.7350   56.8330   15.8450 O.2   450  VAL450     -0.2864
    162  CB       -14.6200   55.8430   13.0820 C.3   450  VAL450      0.0276
    163  CG1      -15.2170   54.6210   13.7540 C.3   450  VAL450      0.0022
    164  CG2      -14.7200   55.6930   11.5760 C.3   450  VAL450      0.0022
@<TRIPOS>BOND
     1    62    61    2
     2     4     3    2
     3    23    21   am
     4     1     2    1
     5    61    60    1
     6    21    20    1
     7    21    22    2
     8    20    17    1
     9    47    46    2
    10     3     2    1
    11     3    12   am
    12     5     2    1
    13     5     6    1
    14    15    14    2
    15    60    59    1
    16    60    63    1
    17    46    45    1
    18    14    13    1
    19    14    16   am
    20    51    52    1
    21    13    12    1
    22    59    53   am
    23    64    63    1
    24    17    16    1
    25    17    18    1
    26     6     7    1
    27    53    54    2
    28    53    52    1
    29    19    18    2
    30    52    55    1
    31    82    81   ar
    32    49    48    1
    33    18    24   am
    34    45    48    1
    35    45    44    1
    36    48    50    1
    37   139   141   ar
    38   139   138   ar
    39     7     8    1
    40   135   134    1
    41   135   136    2
    42     8     9    2
    43   137   138    1
    44   137   134    1
    45   143   144    1
    46   141   142   ar
    47    81    80    1
    48    81    83   ar
    49   138   140   ar
    50   134   133    1
    51     9    11    1
    52     9    10    1
    53    39    38    2
    54    55    56    1
    55    55    57    1
    56    80    77    1
    57    44    38   am
    58    24    25    1
    59    33    32    2
    60    35    34    1
    61   142   140   ar
    62   144   145    1
    63   144   147    1
    64    38    37    1
    65    27    26    2
    66    56    58    1
    67    32    31    1
    68   148   147    1
    69    76    77    1
    70   145   146    2
    71    25    26    1
    72    25    28    1
    73    34    31    1
    74    77    78    1
    75   133   128   am
    76    36    37    1
    77   147   149    1
    78   129   128    2
    79    37    40    1
    80    31    30    1
    81    78    79    2
    82   128   127    1
    83    28    29    1
    84    40    42    1
    85    40    41    1
    86   127   130    1
    87   127   126    1
    88   122   121    2
    89   124   123    1
    90   130   131    1
    91    95    92    1
    92    41    43    1
    93   121   126   am
    94   121   120    1
    95   126   132    1
    96   123   120    1
    97   123   125    1
    98   131   132    1
    99    91    92    1
   100    91    86   am
   101   120   119    1
   102    88    90    1
   103    88    89    1
   104    88    85    1
   105    92    93    1
   106    84    85    1
   107    93    94    2
   108    85    86    1
   109    86    87    2
   110   157   155    1
   111   110   109    1
   112   111   109    1
   113   117   116    1
   114   109   106    1
   115   155   154    1
   116   116   118    1
   117   116   113    1
   118   115   114    2
   119   156   154    1
   120   154   151    1
   121    96    97    1
   122   106   105    1
   123   106   107    1
   124   105    98   am
   125   114   113    1
   126   113   112    1
   127   107   108    2
   128   164   162    1
   129    65    66    1
   130    72    74   ar
   131    72    70   ar
   132    66    69    1
   133    66    67    1
   134    97   100    1
   135    97    98    1
   136    69    70    1
   137   153   152    2
   138   100   101    1
   139    98    99    2
   140   151   152    1
   141   151   150    1
   142    74    75   ar
   143   152   158   am
   144    70    71   ar
   145    68    67    2
   146   162   159    1
   147   162   163    1
   148   158   159    1
   149   104   102   ar
   150   101   102    1
   151   159   160    1
   152    75    73   ar
   153    71    73   ar
   154   102   103   ar
   155   160   161    2
