@<TRIPOS>MOLECULE
tmp/2nnhB02.pdb
 186 176 0 0 0
SMALL
GASTEIGER

@<TRIPOS>ATOM
      1  N         -6.7850   63.9630   -0.2810 N.3    73  SER73      -0.1217
      2  CA        -6.0160   64.7640    0.6620 C.3    73  SER73       0.1889
      3  C         -4.5850   64.2500    0.7230 C.2    73  SER73       0.2288
      4  O         -4.2840   63.1820    0.2000 O.2    73  SER73      -0.2866
      5  CB        -6.6350   64.6400    2.0430 C.3    73  SER73       0.2089
      6  OG        -6.5750   63.2880    2.4680 O.3    73  SER73      -0.2183
      7  N         -2.6890   62.9030    3.2170 N.3    75  ILE75      -0.1231
      8  CA        -2.6290   61.5780    3.8390 C.3    75  ILE75       0.1692
      9  C         -3.2560   60.5220    2.9320 C.2    75  ILE75       0.2592
     10  O         -2.7620   59.4000    2.8130 O.2    75  ILE75      -0.2718
     11  CB        -3.3760   61.5470    5.1850 C.3    75  ILE75       0.0266
     12  CG1       -2.9580   62.7380    6.0490 C.3    75  ILE75       0.0019
     13  CG2       -3.0870   60.2450    5.9050 C.3    75  ILE75       0.0020
     14  CD1       -1.4810   62.7840    6.3760 C.3    75  ILE75       0.0001
     15  N         -4.3590   60.8900    2.2960 N.am   76  SER76      -0.1952
     16  CA        -5.0560   59.9810    1.3970 C.3    76  SER76       0.1924
     17  C         -4.1620   59.5810    0.2300 C.2    76  SER76       0.2314
     18  O         -4.1470   58.4210   -0.1760 O.2    76  SER76      -0.2863
     19  CB        -6.3260   60.6470    0.8690 C.3    76  SER76       0.2116
     20  OG        -6.9420   59.8400   -0.1110 O.3    76  SER76      -0.2180
     21  N         -1.2140   56.9880    0.9750 N.3    79  ILE79      -0.1231
     22  CA        -1.6810   55.6290    1.2670 C.3    79  ILE79       0.1692
     23  C         -2.3360   54.8810    0.1020 C.2    79  ILE79       0.2592
     24  O         -1.8020   53.8820   -0.3860 O.2    79  ILE79      -0.2718
     25  CB        -2.6920   55.6220    2.4440 C.3    79  ILE79       0.0266
     26  CG1       -2.0370   56.1820    3.7040 C.3    79  ILE79       0.0019
     27  CG2       -3.1720   54.2050    2.7110 C.3    79  ILE79       0.0020
     28  CD1       -0.7820   55.4380    4.1000 C.3    79  ILE79       0.0001
     29  N         -3.5010   55.3720   -0.3190 N.am   80  THR80      -0.1953
     30  CA        -4.2860   54.7680   -1.3930 C.3    80  THR80       0.1897
     31  C         -3.7740   55.0510   -2.8050 C.2    80  THR80       0.2313
     32  O         -3.8370   54.1790   -3.6780 O.2    80  THR80      -0.2863
     33  CB        -5.7460   55.2380   -1.3170 C.3    80  THR80       0.1794
     34  OG1       -5.8130   56.6330   -1.6310 O.3    80  THR80      -0.2208
     35  CG2       -6.3030   55.0230    0.0830 C.3    80  THR80       0.0378
     36  N         -2.3620   44.8540   11.9870 N.3   173  ARG173     -0.1231
     37  CA        -1.8370   45.9000   11.1190 C.3   173  ARG173      0.1694
     38  C         -2.9370   46.8480   10.6720 C.2   173  ARG173      0.2592
     39  O         -2.7900   48.0650   10.7780 O.2   173  ARG173     -0.2718
     40  CB        -1.1640   45.2950    9.8890 C.3   173  ARG173      0.0321
     41  CG         0.1890   44.7000   10.1660 C.3   173  ARG173      0.0489
     42  CD         0.8410   44.2100    8.8930 C.3   173  ARG173      0.2205
     43  NE         2.2420   43.8770    9.1200 N.pl3 173  ARG173     -0.0865
     44  CZ         2.6650   42.8780    9.8900 C.cat 173  ARG173      0.5346
     45  NH1        1.7930   42.0950   10.5140 N.pl3 173  ARG173      0.1354
     46  NH2        3.9680   42.6670   10.0480 N.pl3 173  ARG173      0.1354
     47  N         -4.0370   46.2970   10.1650 N.am  174  PHE174     -0.1976
     48  CA        -5.1410   47.1320    9.7200 C.3   174  PHE174      0.1639
     49  C         -5.7650   47.9020   10.8750 C.2   174  PHE174      0.2290
     50  O         -6.2210   49.0280   10.7060 O.2   174  PHE174     -0.2864
     51  CB        -6.2060   46.2860    9.0260 C.3   174  PHE174      0.0560
     52  CG        -5.9400   46.0590    7.5640 C.ar  174  PHE174     -0.0200
     53  CD1       -5.4830   44.8270    7.1040 C.ar  174  PHE174     -0.0042
     54  CD2       -6.1370   47.0910    6.6420 C.ar  174  PHE174     -0.0042
     55  CE1       -5.2250   44.6240    5.7400 C.ar  174  PHE174     -0.0003
     56  CE2       -5.8820   46.9010    5.2810 C.ar  174  PHE174     -0.0003
     57  CZ        -5.4250   45.6670    4.8280 C.ar  174  PHE174     -0.0000
     58  N         -3.4630   50.7430   12.1600 N.3   177  ASN177     -0.1225
     59  CA        -3.5840   51.8430   11.2200 C.3   177  ASN177      0.1785
     60  C         -4.8950   52.6060   11.4210 C.2   177  ASN177      0.2597
     61  O         -4.9020   53.8410   11.4080 O.2   177  ASN177     -0.2718
     62  CB        -3.4710   51.3270    9.7860 C.3   177  ASN177      0.1169
     63  CG        -2.1460   51.6830    9.1430 C.2   177  ASN177      0.2627
     64  OD1       -1.1130   51.7620    9.8070 O.2   177  ASN177     -0.2716
     65  ND2       -2.1680   51.8840    7.8350 N.am  177  ASN177     -0.0877
     66  N         -5.9940   51.8740   11.6100 N.am  178  PHE178     -0.1976
     67  CA        -7.3050   52.4880   11.8280 C.3   178  PHE178      0.1639
     68  C         -7.2260   53.4140   13.0390 C.2   178  PHE178      0.2290
     69  O         -7.6180   54.5750   12.9720 O.2   178  PHE178     -0.2864
     70  CB        -8.3940   51.4050   12.0670 C.3   178  PHE178      0.0560
     71  CG        -9.6960   51.9570   12.6080 C.ar  178  PHE178     -0.0200
     72  CD1       -9.8970   52.0870   13.9750 C.ar  178  PHE178     -0.0042
     73  CD2      -10.6680   52.4520   11.7470 C.ar  178  PHE178     -0.0042
     74  CE1      -11.0420   52.7130   14.4760 C.ar  178  PHE178     -0.0003
     75  CE2      -11.8100   53.0770   12.2380 C.ar  178  PHE178     -0.0003
     76  CZ       -11.9960   53.2100   13.6040 C.ar  178  PHE178     -0.0000
     77  N         -5.1910   56.6540   12.2220 N.3   181  LEU181     -0.1231
     78  CA        -5.8540   57.5310   11.2670 C.3   181  LEU181      0.1693
     79  C         -7.2020   58.0490   11.7050 C.2   181  LEU181      0.2592
     80  O         -7.8090   58.8630   11.0080 O.2   181  LEU181     -0.2718
     81  CB        -5.9740   56.8190    9.9200 C.3   181  LEU181      0.0284
     82  CG        -4.6220   56.3450    9.3540 C.3   181  LEU181      0.0019
     83  CD1       -4.8090   55.6810    8.0220 C.3   181  LEU181      0.0001
     84  CD2       -3.6850   57.5210    9.2100 C.3   181  LEU181      0.0001
     85  N         -7.6580   57.5870   12.8670 N.am  182  ASN182     -0.1974
     86  CA        -8.9440   58.0110   13.4160 C.3   182  ASN182      0.1688
     87  C         -8.6920   58.9810   14.5690 C.2   182  ASN182      0.2292
     88  O         -9.4570   59.0620   15.5170 O.2   182  ASN182     -0.2864
     89  CB        -9.7530   56.7860   13.8820 C.3   182  ASN182      0.1181
     90  CG       -11.1620   57.1480   14.3460 C.2   182  ASN182      0.2629
     91  OD1      -11.7940   58.0440   13.7960 O.2   182  ASN182     -0.2716
     92  ND2      -11.6610   56.4380   15.3500 N.am  182  ASN182     -0.0877
     93  N         -5.3940   63.9350   12.4080 N.3   186  ILE186     -0.1231
     94  CA        -5.4510   63.7730   10.9480 C.3   186  ILE186      0.1692
     95  C         -6.1530   64.9500   10.3030 C.2   186  ILE186      0.2591
     96  O         -5.8710   65.2940    9.1650 O.2   186  ILE186     -0.2718
     97  CB        -6.1700   62.4500   10.5170 C.3   186  ILE186      0.0266
     98  CG1       -7.4240   62.1930   11.3730 C.3   186  ILE186      0.0019
     99  CG2       -5.1910   61.2700   10.6540 C.3   186  ILE186      0.0020
    100  CD1       -8.5930   63.1910   11.2410 C.3   186  ILE186      0.0001
    101  N         -7.0740   65.5510   11.0510 N.am  187  GLN187     -0.1979
    102  CA        -7.8140   66.7160   10.6110 C.3   187  GLN187      0.1601
    103  C         -6.7800   67.8160   10.4090 C.2   187  GLN187      0.2287
    104  O         -6.5990   68.3360    9.3050 O.2   187  GLN187     -0.2864
    105  CB        -8.8040   67.1420   11.7010 C.3   187  GLN187      0.0394
    106  CG       -10.1040   66.3650   11.6990 C.3   187  GLN187      0.0908
    107  CD       -11.0940   66.9110   10.6900 C.2   187  GLN187      0.2608
    108  OE1      -11.8150   67.8650   10.9750 O.2   187  GLN187     -0.2717
    109  NE2      -11.1210   66.3200    9.4980 N.am  187  GLN187     -0.0878
    110  N         -4.0010   67.0970    7.7860 N.3   190  ASN190     -0.1240
    111  CA        -4.5190   67.0920    6.4220 C.3   190  ASN190      0.1653
    112  C         -4.6720   68.5200    5.8750 C.2   190  ASN190      0.2266
    113  O         -4.4650   68.7540    4.6900 O.2   190  ASN190     -0.2867
    114  CB        -5.8730   66.3710    6.3560 C.3   190  ASN190      0.1155
    115  CG        -5.8320   65.1250    5.4820 C.2   190  ASN190      0.2627
    116  OD1       -4.9620   64.9790    4.6180 O.2   190  ASN190     -0.2716
    117  ND2       -6.7860   64.2260    5.6940 N.am  190  ASN190     -0.0877
    118  N          2.9020   49.4670    7.7270 N.3   209  ASN209     -0.1225
    119  CA         1.7180   48.6220    7.8620 C.3   209  ASN209      0.1785
    120  C          1.0670   48.4460    6.5030 C.2   209  ASN209      0.2597
    121  O          0.6020   47.3640    6.1670 O.2   209  ASN209     -0.2718
    122  CB         0.6860   49.2390    8.8060 C.3   209  ASN209      0.1169
    123  CG         0.9680   48.9400   10.2580 C.2   209  ASN209      0.2627
    124  OD1        1.6440   47.9600   10.5830 O.2   209  ASN209     -0.2716
    125  ND2        0.4320   49.7750   11.1490 N.am  209  ASN209     -0.0877
    126  N          1.0300   49.5240    5.7290 N.am  210  VAL210     -0.1980
    127  CA         0.4360   49.4930    4.4040 C.3   210  VAL210      0.1595
    128  C          1.2460   48.6200    3.4580 C.2   210  VAL210      0.2287
    129  O          0.6900   47.9840    2.5750 O.2   210  VAL210     -0.2864
    130  CB         0.3350   50.9160    3.8020 C.3   210  VAL210      0.0276
    131  CG1       -0.1420   50.8420    2.3580 C.3   210  VAL210      0.0022
    132  CG2       -0.6160   51.7670    4.6430 C.3   210  VAL210      0.0022
    133  N          0.9720   44.7880    4.6330 N.3   213  THR213     -0.1203
    134  CA        -0.3870   44.3560    4.3860 C.3   213  THR213      0.1994
    135  C         -0.6800   44.1610    2.8930 C.2   213  THR213      0.2617
    136  O         -1.3510   43.2020    2.5080 O.2   213  THR213     -0.2717
    137  CB        -1.3630   45.3620    5.0300 C.3   213  THR213      0.1784
    138  OG1       -2.2350   44.6600    5.9160 O.3   213  THR213     -0.2211
    139  CG2       -2.1700   46.1100    3.9860 C.3   213  THR213      0.0376
    140  N         -0.1800   45.0710    2.0570 N.am  214  ARG214     -0.1979
    141  CA        -0.3790   44.9780    0.6130 C.3   214  ARG214      0.1597
    142  C          0.5100   43.8620    0.0770 C.2   214  ARG214      0.2287
    143  O          0.1280   43.1450   -0.8450 O.2   214  ARG214     -0.2864
    144  CB        -0.0130   46.2980   -0.0780 C.3   214  ARG214      0.0334
    145  CG        -1.1480   47.3160   -0.2140 C.3   214  ARG214      0.0492
    146  CD        -1.6680   47.8080    1.1270 C.3   214  ARG214      0.2205
    147  NE        -2.6660   48.8660    0.9760 N.pl3 214  ARG214     -0.0865
    148  CZ        -3.2730   49.4770    1.9910 C.cat 214  ARG214      0.5346
    149  NH1       -2.9870   49.1420    3.2470 N.pl3 214  ARG214      0.1354
    150  NH2       -4.1740   50.4190    1.7480 N.pl3 214  ARG214      0.1354
    151  N        -10.4340   47.5910    5.2410 N.3   269  VAL269     -0.1245
    152  CA       -10.5090   48.9040    5.8500 C.3   269  VAL269      0.1561
    153  C        -11.9250   49.4270    6.0400 C.2   269  VAL269      0.2260
    154  O        -12.3400   49.7300    7.1550 O.2   269  VAL269     -0.2867
    155  CB        -9.6850   49.9180    5.0200 C.3   269  VAL269      0.0252
    156  CG1       -9.9280   51.3490    5.5120 C.3   269  VAL269      0.0019
    157  CG2       -8.2050   49.5490    5.1080 C.3   269  VAL269      0.0019
    158  N        -18.3870   60.5270    5.5560 N.3   339  VAL339     -0.1231
    159  CA       -17.0600   60.5600    4.9680 C.3   339  VAL339      0.1678
    160  C        -17.0860   61.7170    3.9860 C.2   339  VAL339      0.2434
    161  O        -17.9990   61.8150    3.1720 O.2   339  VAL339     -0.2733
    162  CB       -16.7770   59.2620    4.2290 C.3   339  VAL339      0.0265
    163  CG1      -15.4750   59.3590    3.4840 C.3   339  VAL339      0.0020
    164  CG2      -16.7480   58.1070    5.2310 C.3   339  VAL339      0.0020
    165  N        -16.0860   62.6160    4.0450 N.am  340  PRO340     -0.2729
    166  CA       -16.0810   63.7570    3.1220 C.3   340  PRO340      0.1401
    167  C        -16.0660   63.4800    1.6370 C.2   340  PRO340      0.2269
    168  O        -15.4590   62.5190    1.1640 O.2   340  PRO340     -0.2865
    169  CB       -14.8710   64.5780    3.5750 C.3   340  PRO340      0.0296
    170  CG       -13.9960   63.5930    4.2730 C.3   340  PRO340      0.0237
    171  CD       -14.9700   62.7030    5.0050 C.3   340  PRO340      0.0939
    172  N        -13.1340   60.5740   13.2280 N.3   449  ILE449     -0.1231
    173  CA       -14.1700   60.5090   12.2160 C.3   449  ILE449      0.1692
    174  C        -15.1100   59.3280   12.4860 C.2   449  ILE449      0.2591
    175  O        -16.2690   59.3340   12.0750 O.2   449  ILE449     -0.2718
    176  CB       -13.5610   60.3730   10.8040 C.3   449  ILE449      0.0266
    177  CG1      -14.6440   60.6320    9.7540 C.3   449  ILE449      0.0019
    178  CG2      -12.9450   58.9920   10.6280 C.3   449  ILE449      0.0020
    179  CD1      -14.1610   60.5470    8.3310 C.3   449  ILE449      0.0001
    180  N        -14.6000   58.3290   13.1940 N.am  450  VAL450     -0.1980
    181  CA       -15.3700   57.1350   13.5380 C.3   450  VAL450      0.1595
    182  C        -15.6450   57.0620   15.0490 C.2   450  VAL450      0.2287
    183  O        -14.7350   56.8330   15.8450 O.2   450  VAL450     -0.2864
    184  CB       -14.6200   55.8430   13.0820 C.3   450  VAL450      0.0276
    185  CG1      -15.2170   54.6210   13.7540 C.3   450  VAL450      0.0022
    186  CG2      -14.7200   55.6930   11.5760 C.3   450  VAL450      0.0022
@<TRIPOS>BOND
     1    32    31    2
     2    31    30    1
     3    34    33    1
     4    30    33    1
     5    30    29    1
     6    33    35    1
     7   143   142    2
     8    24    23    2
     9    29    23   am
    10     1     2    1
    11   145   144    1
    12   145   146    1
    13    18    17    2
    14    20    19    1
    15   144   141    1
    16   142   141    1
    17    23    22    1
    18     4     3    2
    19    17    16    1
    20   141   140    1
    21     2     3    1
    22     2     5    1
    23    19    16    1
    24    21    22    1
    25   147   146    1
    26   147   148    2
    27   168   167    2
    28    22    25    1
    29    16    15    1
    30   167   166    1
    31   150   148    1
    32   148   149    1
    33     5     6    1
    34   140   135   am
    35    15     9   am
    36   131   130    1
    37    25    27    1
    38    25    26    1
    39   136   135    2
    40   129   128    2
    41    10     9    2
    42   135   134    1
    43     9     8    1
    44   166   169    1
    45   166   165    1
    46   161   160    2
    47     7     8    1
    48   128   127    1
    49   163   162    1
    50   169   170    1
    51    26    28    1
    52   130   127    1
    53   130   132    1
    54     8    11    1
    55   160   165   am
    56   160   159    1
    57   139   137    1
    58   165   171    1
    59   162   159    1
    60   162   164    1
    61   170   171    1
    62   134   133    1
    63   134   137    1
    64   127   126    1
    65   116   115    2
    66   113   112    2
    67    57    56   ar
    68    57    55   ar
    69   159   158    1
    70   155   157    1
    71   155   156    1
    72   155   152    1
    73   137   138    1
    74    11    13    1
    75    11    12    1
    76   151   152    1
    77    56    54   ar
    78   115   117   am
    79   115   114    1
    80   126   120   am
    81    55    53   ar
    82   152   153    1
    83   112   111    1
    84   153   154    2
    85    12    14    1
    86   121   120    2
    87   114   111    1
    88   111   110    1
    89   120   119    1
    90    54    52   ar
    91    53    52   ar
    92    52    51    1
    93   118   119    1
    94    65    63   am
    95   119   122    1
    96    83    82    1
    97   179   177    1
    98   122   123    1
    99    42    43    1
   100    42    41    1
   101    51    48    1
   102    43    44    2
   103    63    62    1
   104    63    64    2
   105    96    95    2
   106    84    82    1
   107   104   103    2
   108    82    81    1
   109   109   107   am
   110    48    47    1
   111    48    49    1
   112   177   176    1
   113    62    59    1
   114    40    41    1
   115    40    37    1
   116    44    46    1
   117    44    45    1
   118    81    78    1
   119    47    38   am
   120   123   124    2
   121   123   125   am
   122    95    94    1
   123    95   101   am
   124   103   102    1
   125    97    99    1
   126    97    94    1
   127    97    98    1
   128   102   101    1
   129   102   105    1
   130   178   176    1
   131    38    39    2
   132    38    37    1
   133   107   108    2
   134   107   106    1
   135    50    49    2
   136   176   173    1
   137    94    93    1
   138    80    79    2
   139    37    36    1
   140    59    60    1
   141    59    58    1
   142   100    98    1
   143    78    79    1
   144    78    77    1
   145    61    60    2
   146    60    66   am
   147   186   184    1
   148    66    67    1
   149   106   105    1
   150    79    85   am
   151    73    75   ar
   152    73    71   ar
   153    67    70    1
   154    67    68    1
   155    70    71    1
   156   175   174    2
   157   173   174    1
   158   173   172    1
   159    75    76   ar
   160   174   180   am
   161    71    72   ar
   162    85    86    1
   163    69    68    2
   164   184   181    1
   165   184   185    1
   166   180   181    1
   167    86    89    1
   168    86    87    1
   169   181   182    1
   170    76    74   ar
   171    91    90    2
   172    89    90    1
   173    72    74   ar
   174    90    92   am
   175    87    88    2
   176   182   183    2
