@<TRIPOS>MOLECULE
tmp/2nnjA01.pdb
 152 143 0 0 0
SMALL
GASTEIGER

@<TRIPOS>ATOM
      1  N         59.2170   17.4830  -17.8210 N.3    70  ARG70      -0.1231
      2  CA        57.9420   16.9040  -18.2090 C.3    70  ARG70       0.1694
      3  C         57.5590   15.8850  -17.1390 C.2    70  ARG70       0.2592
      4  O         58.3480   15.0030  -16.8120 O.2    70  ARG70      -0.2718
      5  CB        58.0560   16.2080  -19.5700 C.3    70  ARG70       0.0321
      6  CG        56.8360   15.3470  -19.9690 C.3    70  ARG70       0.0489
      7  CD        55.5530   16.1730  -20.1050 C.3    70  ARG70       0.2205
      8  NE        55.5550   17.0150  -21.3060 N.pl3  70  ARG70      -0.0865
      9  CZ        55.2200   18.3020  -21.3380 C.cat  70  ARG70       0.5346
     10  NH1       55.2570   18.9570  -22.4970 N.pl3  70  ARG70       0.1354
     11  NH2       54.8630   18.9430  -20.2200 N.pl3  70  ARG70       0.1354
     12  N         56.3600   16.0260  -16.5860 N.am   71  GLY71      -0.1957
     13  CA        55.8880   15.0880  -15.5850 C.3    71  GLY71       0.1869
     14  C         55.5370   13.8260  -16.3400 C.2    71  GLY71       0.2309
     15  O         54.6260   13.8350  -17.1710 O.2    71  GLY71      -0.2863
     16  N         52.9740    6.8060  -20.2960 N.3    76  SER76      -0.1217
     17  CA        53.7430    7.6270  -21.2330 C.3    76  SER76       0.1889
     18  C         55.0580    6.9470  -21.6030 C.2    76  SER76       0.2288
     19  O         55.4070    6.8760  -22.7790 O.2    76  SER76      -0.2866
     20  CB        54.0320    9.0160  -20.6460 C.3    76  SER76       0.2089
     21  OG        52.9750    9.9210  -20.9300 O.3    76  SER76      -0.2183
     22  N         54.3960    4.0030  -24.0240 N.3    79  ILE79      -0.1231
     23  CA        54.0120    4.3560  -25.3910 C.3    79  ILE79       0.1692
     24  C         55.1740    4.9930  -26.1670 C.2    79  ILE79       0.2592
     25  O         55.4400    4.6160  -27.3080 O.2    79  ILE79      -0.2718
     26  CB        52.8010    5.3490  -25.4100 C.3    79  ILE79       0.0266
     27  CG1       51.5540    4.6720  -24.8310 C.3    79  ILE79       0.0019
     28  CG2       52.5120    5.8190  -26.8440 C.3    79  ILE79       0.0020
     29  CD1       50.3440    5.5870  -24.6600 C.3    79  ILE79       0.0001
     30  N         55.8630    5.9450  -25.5400 N.am   80  THR80      -0.1953
     31  CA        56.9620    6.6670  -26.1920 C.3    80  THR80       0.1897
     32  C         58.3620    6.1100  -25.9610 C.2    80  THR80       0.2313
     33  O         59.2410    6.2800  -26.8110 O.2    80  THR80      -0.2863
     34  CB        56.9990    8.1460  -25.7500 C.3    80  THR80       0.1794
     35  OG1       57.3210    8.2140  -24.3560 O.3    80  THR80      -0.2208
     36  CG2       55.6540    8.8220  -25.9950 C.3    80  THR80       0.0378
     37  N         57.6230   15.2990  -26.6760 N.3    86  ILE86      -0.1231
     38  CA        56.6250   15.4290  -25.6060 C.3    86  ILE86       0.1692
     39  C         57.0230   14.7900  -24.2700 C.2    86  ILE86       0.2592
     40  O         56.9260   15.4350  -23.2210 O.2    86  ILE86      -0.2718
     41  CB        55.2520   14.8350  -26.0230 C.3    86  ILE86       0.0266
     42  CG1       54.7180   15.5600  -27.2660 C.3    86  ILE86       0.0019
     43  CG2       54.2460   14.9690  -24.8610 C.3    86  ILE86       0.0020
     44  CD1       53.4810   14.9070  -27.8740 C.3    86  ILE86       0.0001
     45  N         57.4880   13.5440  -24.3210 N.am   87  SER87      -0.1952
     46  CA        57.8430   12.8020  -23.1120 C.3    87  SER87       0.1924
     47  C         59.3100   12.7180  -22.7380 C.2    87  SER87       0.2314
     48  O         59.6610   12.0020  -21.7960 O.2    87  SER87      -0.2863
     49  CB        57.2810   11.3850  -23.2030 C.3    87  SER87       0.2116
     50  OG        55.8700   11.4330  -23.3290 O.3    87  SER87      -0.2180
     51  N         43.2810    8.5780  -28.9930 N.3   178  PHE178     -0.1241
     52  CA        42.9610    9.8350  -28.3290 C.3   178  PHE178      0.1605
     53  C         41.8130    9.6120  -27.3460 C.2   178  PHE178      0.2264
     54  O         41.8950   10.0350  -26.2010 O.2   178  PHE178     -0.2867
     55  CB        42.5720   10.9290  -29.3410 C.3   178  PHE178      0.0534
     56  CG        41.9040   12.1230  -28.7090 C.ar  178  PHE178     -0.0203
     57  CD1       40.5080   12.2700  -28.7570 C.ar  178  PHE178     -0.0042
     58  CD2       42.6580   13.0620  -27.9880 C.ar  178  PHE178     -0.0042
     59  CE1       39.8660   13.3380  -28.0880 C.ar  178  PHE178     -0.0003
     60  CE2       42.0340   14.1370  -27.3120 C.ar  178  PHE178     -0.0003
     61  CZ        40.6330   14.2730  -27.3620 C.ar  178  PHE178     -0.0000
     62  N         42.9760    7.6660  -24.2730 N.3   181  LEU181     -0.1245
     63  CA        43.8300    8.5170  -23.4390 C.3   181  LEU181      0.1561
     64  C         43.1240    9.7450  -22.8590 C.2   181  LEU181      0.2260
     65  O         43.6760   10.4320  -22.0070 O.2   181  LEU181     -0.2867
     66  CB        45.0650    8.9600  -24.2300 C.3   181  LEU181      0.0270
     67  CG        46.0030    7.8740  -24.7880 C.3   181  LEU181      0.0019
     68  CD1       47.0850    8.5330  -25.6370 C.3   181  LEU181      0.0001
     69  CD2       46.6350    7.0680  -23.6530 C.3   181  LEU181      0.0001
     70  N         50.3090   13.6240  -32.5730 N.3   269  VAL269     -0.1231
     71  CA        49.5960   13.5120  -31.3150 C.3   269  VAL269      0.1692
     72  C         49.2460   14.8720  -30.7230 C.2   269  VAL269      0.2591
     73  O         48.0980   15.1290  -30.3660 O.2   269  VAL269     -0.2718
     74  CB        50.4370   12.6700  -30.3060 C.3   269  VAL269      0.0266
     75  CG1       49.9120   12.8300  -28.8930 C.3   269  VAL269      0.0020
     76  CG2       50.3850   11.1950  -30.7020 C.3   269  VAL269      0.0020
     77  N         50.2390   15.7440  -30.6320 N.am  270  ALA270     -0.1980
     78  CA        50.0410   17.0630  -30.0600 C.3   270  ALA270      0.1597
     79  C         49.3870   18.0800  -30.9950 C.2   270  ALA270      0.2287
     80  O         48.7980   19.0530  -30.5320 O.2   270  ALA270     -0.2864
     81  CB        51.3740   17.5960  -29.5700 C.3   270  ALA270      0.0319
     82  N         44.4720   16.4180  -32.7910 N.3   273  GLU273     -0.1231
     83  CA        43.2530   16.5590  -32.0190 C.3   273  GLU273      0.1699
     84  C         43.0490   17.8820  -31.2890 C.2   273  GLU273      0.2592
     85  O         41.9170   18.2860  -31.0610 O.2   273  GLU273     -0.2718
     86  CB        43.1130   15.3980  -31.0360 C.3   273  GLU273      0.0402
     87  CG        41.6630   15.0200  -30.8200 C.3   273  GLU273      0.1161
     88  CD        41.0440   14.3510  -32.0410 C.2   273  GLU273      0.3649
     89  OE1       39.8950   14.6970  -32.3860 O.co2 273  GLU273     -0.2457
     90  OE2       41.7020   13.4760  -32.6470 O.co2 273  GLU273     -0.2457
     91  N         44.1280   18.5600  -30.9310 N.am  274  THR274     -0.1953
     92  CA        44.0090   19.8460  -30.2390 C.3   274  THR274      0.1897
     93  C         43.4680   20.9470  -31.1580 C.2   274  THR274      0.2313
     94  O         42.5670   21.6990  -30.7750 O.2   274  THR274     -0.2863
     95  CB        45.3580   20.2870  -29.7010 C.3   274  THR274      0.1794
     96  OG1       46.3190   20.2510  -30.7670 O.3   274  THR274     -0.2208
     97  CG2       45.8050   19.3610  -28.5980 C.3   274  THR274      0.0378
     98  N         40.9800   24.4450  -23.8460 N.3   334  LEU334     -0.1231
     99  CA        41.3360   23.1010  -24.2770 C.3   334  LEU334      0.1693
    100  C         42.0450   22.1790  -23.2760 C.2   334  LEU334      0.2591
    101  O         41.6380   21.0350  -23.1020 O.2   334  LEU334     -0.2718
    102  CB        42.1690   23.1990  -25.5590 C.3   334  LEU334      0.0284
    103  CG        42.5540   21.9010  -26.2850 C.3   334  LEU334      0.0019
    104  CD1       41.3180   21.2580  -26.9000 C.3   334  LEU334      0.0001
    105  CD2       43.5680   22.2160  -27.3780 C.3   334  LEU334      0.0001
    106  N         43.1100   22.6750  -22.6530 N.am  335  VAL335     -0.1980
    107  CA        43.8970   21.9160  -21.6850 C.3   335  VAL335      0.1595
    108  C         43.8250   22.6980  -20.3610 C.2   335  VAL335      0.2287
    109  O         44.7580   23.4170  -20.0030 O.2   335  VAL335     -0.2864
    110  CB        45.3790   21.8060  -22.1640 C.3   335  VAL335      0.0276
    111  CG1       46.0890   20.6650  -21.4530 C.3   335  VAL335      0.0022
    112  CG2       45.4340   21.5910  -23.6750 C.3   335  VAL335      0.0022
    113  N         44.1220   21.7980  -17.1930 N.3   337  THR337     -0.1203
    114  CA        45.1390   21.4450  -16.1910 C.3   337  THR337      0.1994
    115  C         46.5360   21.6650  -16.7500 C.2   337  THR337      0.2618
    116  O         47.5300   21.6340  -16.0110 O.2   337  THR337     -0.2717
    117  CB        45.0540   19.9370  -15.7570 C.3   337  THR337      0.1784
    118  OG1       45.4810   19.1010  -16.8350 O.3   337  THR337     -0.2211
    119  CG2       43.6500   19.5470  -15.3990 C.3   337  THR337      0.0376
    120  N         46.6030   21.9010  -18.0570 N.am  338  GLY338     -0.1942
    121  CA        47.8800   22.0580  -18.7170 C.3   338  GLY338      0.2014
    122  C         48.4350   20.6460  -18.8160 C.2   338  GLY338      0.2639
    123  O         47.7640   19.6970  -18.4150 O.2   338  GLY338     -0.2714
    124  N         49.6320   20.4920  -19.3590 N.am  339  VAL339     -0.1963
    125  CA        50.2480   19.1790  -19.4550 C.3   339  VAL339      0.1712
    126  C         51.1810   19.1250  -18.2480 C.2   339  VAL339      0.2458
    127  O         51.8940   20.0940  -17.9680 O.2   339  VAL339     -0.2730
    128  CB        51.0310   19.0110  -20.7870 C.3   339  VAL339      0.0289
    129  CG1       51.6940   17.6350  -20.8560 C.3   339  VAL339      0.0023
    130  CG2       50.0690   19.1580  -21.9560 C.3   339  VAL339      0.0023
    131  N         51.1670   18.0060  -17.5000 N.am  340  PRO340     -0.2727
    132  CA        52.0310   17.8880  -16.3200 C.3   340  PRO340      0.1402
    133  C         53.5170   18.1300  -16.5070 C.2   340  PRO340      0.2269
    134  O         54.1350   17.6710  -17.4640 O.2   340  PRO340     -0.2865
    135  CB        51.7230   16.4760  -15.7950 C.3   340  PRO340      0.0296
    136  CG        51.1760   15.7570  -17.0000 C.3   340  PRO340      0.0237
    137  CD        50.3280   16.8010  -17.6460 C.3   340  PRO340      0.0939
    138  N         41.6040   15.8820  -19.4270 N.3   449  ILE449     -0.1231
    139  CA        42.8610   16.1240  -20.1530 C.3   449  ILE449      0.1692
    140  C         42.6000   17.1200  -21.2900 C.2   449  ILE449      0.2591
    141  O         43.3630   18.0710  -21.4770 O.2   449  ILE449     -0.2718
    142  CB        43.5360   14.7900  -20.6870 C.3   449  ILE449      0.0266
    143  CG1       44.4420   14.2160  -19.5880 C.3   449  ILE449      0.0019
    144  CG2       44.3180   15.0270  -21.9920 C.3   449  ILE449      0.0020
    145  CD1       45.2810   13.0020  -20.0010 C.3   449  ILE449      0.0001
    146  N         41.5200   16.9040  -22.0350 N.am  450  VAL450     -0.1980
    147  CA        41.1410   17.7880  -23.1280 C.3   450  VAL450      0.1595
    148  C         39.6420   18.0540  -23.0480 C.2   450  VAL450      0.2287
    149  O         38.8390   17.1290  -23.1480 O.2   450  VAL450     -0.2864
    150  CB        41.4840   17.1630  -24.5170 C.3   450  VAL450      0.0276
    151  CG1       40.8320   17.9510  -25.6360 C.3   450  VAL450      0.0022
    152  CG2       42.9790   17.1590  -24.7330 C.3   450  VAL450      0.0022
@<TRIPOS>BOND
     1    82    83    1
     2    90    88   ar
     3    70    71    1
     4    89    88   ar
     5    88    87    1
     6    83    84    1
     7    83    86    1
     8    71    72    1
     9    71    74    1
    10    84    85    2
    11    84    91   am
    12    93    94    2
    13    93    92    1
    14    86    87    1
    15    79    80    2
    16    79    78    1
    17    91    92    1
    18    96    95    1
    19    72    77   am
    20    72    73    2
    21    76    74    1
    22    77    78    1
    23    74    75    1
    24    92    95    1
    25    78    81    1
    26    95    97    1
    27    55    56    1
    28    55    52    1
    29    51    52    1
    30    57    56   ar
    31    57    59   ar
    32    56    58   ar
    33    52    53    1
    34    59    61   ar
    35    58    60   ar
    36    44    42    1
    37   105   103    1
    38    61    60   ar
    39    53    54    2
    40    25    24    2
    41    42    41    1
    42   104   103    1
    43    28    26    1
    44    33    32    2
    45    37    38    1
    46   103   102    1
    47    31    32    1
    48    31    34    1
    49    31    30    1
    50    24    30   am
    51    24    23    1
    52    41    38    1
    53    41    43    1
    54    36    34    1
    55    34    35    1
    56    68    67    1
    57   151   150    1
    58    38    39    1
    59   102    99    1
    60    26    23    1
    61    26    27    1
    62    23    22    1
    63    27    29    1
    64    67    66    1
    65    67    69    1
    66   152   150    1
    67   150   147    1
    68    45    39   am
    69    45    46    1
    70    99    98    1
    71    99   100    1
    72    62    63    1
    73    39    40    2
    74    66    63    1
    75   112   110    1
    76    63    64    1
    77    50    49    1
    78   100   101    2
    79   100   106   am
    80    49    46    1
    81   149   148    2
    82   147   148    1
    83   147   146    1
    84    46    47    1
    85    64    65    2
    86    19    18    2
    87    47    48    2
    88   106   107    1
    89    10     9    1
    90   110   107    1
    91   110   111    1
    92   146   140   am
    93   144   142    1
    94   130   128    1
    95   107   108    1
    96    18    17    1
    97   141   140    2
    98     9     8    2
    99     9    11    1
   100     8     7    1
   101   140   139    1
   102    17    20    1
   103    17    16    1
   104    21    20    1
   105   129   128    1
   106   128   125    1
   107   142   139    1
   108   142   143    1
   109   108   109    2
   110   139   138    1
   111     7     6    1
   112   145   143    1
   113     6     5    1
   114     5     2    1
   115   125   124    1
   116   125   126    1
   117   124   122   am
   118   122   121    1
   119   122   123    2
   120   121   120    1
   121   126   127    2
   122   126   131   am
   123     2     1    1
   124     2     3    1
   125   120   115   am
   126   137   131    1
   127   137   136    1
   128   131   132    1
   129   134   133    2
   130   113   114    1
   131    15    14    2
   132     3     4    2
   133     3    12   am
   134   136   135    1
   135   118   117    1
   136   115   114    1
   137   115   116    2
   138    12    13    1
   139   133   132    1
   140    14    13    1
   141   132   135    1
   142   114   117    1
   143   117   119    1
