@<TRIPOS>MOLECULE
tmp/2nnoA01.pdb
 110 115 0 0 0
SMALL
GASTEIGER

@<TRIPOS>ATOM
      1  N         12.3690    6.7030    7.8930 N.3     1  SER1       -0.1202
      2  CA        10.9340    6.4550    7.6220 C.3     1  SER1        0.2020
      3  C         10.4410    5.2750    8.4460 C.2     1  SER1        0.2619
      4  O         11.1930    4.4660    8.9460 O.2     1  SER1       -0.2717
      5  CB        10.7620    6.1240    6.1590 C.3     1  SER1        0.2103
      6  OG        11.8570    5.2650    5.7550 O.3     1  SER1       -0.2182
      7  N          9.1430    5.1390    8.5640 N.am    2  HIS2       -0.1961
      8  CA         8.5170    4.0170    9.2810 C.3     2  HIS2        0.1787
      9  C          8.7350    2.7050    8.4980 C.2     2  HIS2        0.2620
     10  O          8.4460    2.6150    7.3030 O.2     2  HIS2       -0.2715
     11  CB         7.0590    4.2450    9.4680 C.3     2  HIS2        0.0785
     12  CG         6.6880    5.2260   10.5360 C.ar    2  HIS2        0.0821
     13  ND1        5.3900    5.3200   11.0030 N.ar    2  HIS2       -0.2267
     14  CD2        7.4530    6.0950   11.2350 C.ar    2  HIS2        0.1154
     15  CE1        5.3500    6.2460   11.9460 C.ar    2  HIS2        0.1986
     16  NE2        6.5690    6.7290   12.0960 N.ar    2  HIS2       -0.2212
     17  N          9.2440    1.7100    9.1760 N.am    3  HIS3       -0.1959
     18  CA         9.4970    0.3830    8.5720 C.3     3  HIS3        0.1787
     19  C          9.0740   -0.7390    9.5060 C.2     3  HIS3        0.2620
     20  O          9.4390   -1.9050    9.3440 O.2     3  HIS3       -0.2715
     21  CB        10.9720    0.2240    8.1250 C.3     3  HIS3        0.0785
     22  CG        11.2540    1.0010    6.8800 C.ar    3  HIS3        0.0821
     23  ND1       10.6180    0.8340    5.6540 N.ar    3  HIS3       -0.2267
     24  CD2       12.1280    2.0070    6.6640 C.ar    3  HIS3        0.1154
     25  CE1       11.0980    1.6800    4.7690 C.ar    3  HIS3        0.1986
     26  NE2       12.0250    2.4140    5.3650 N.ar    3  HIS3       -0.2212
     27  N          8.2320   -0.4280   10.4560 N.am    4  TRP4       -0.1974
     28  CA         7.6580   -1.4470   11.3150 C.3     4  TRP4        0.1640
     29  C          6.6600   -2.2660   10.5320 C.2     4  TRP4        0.2290
     30  O          6.0550   -1.8270    9.5340 O.2     4  TRP4       -0.2864
     31  CB         6.9810   -0.7530   12.4890 C.3     4  TRP4        0.0576
     32  CG         5.8160    0.0890   12.1430 C.ar    4  TRP4        0.0006
     33  CD1        5.7660    1.4000   11.8540 C.ar    4  TRP4        0.0946
     34  CD2        4.4550   -0.3750   12.0870 C.ar    4  TRP4        0.0152
     35  NE1        4.4770    1.8150   11.5920 N.ar    4  TRP4       -0.2442
     36  CE2        3.6580    0.7340   11.7410 C.ar    4  TRP4        0.0810
     37  CE3        3.8620   -1.6260   12.3150 C.ar    4  TRP4        0.0012
     38  CZ2        2.2750    0.6220   11.5880 C.ar    4  TRP4        0.0191
     39  CZ3        2.4640   -1.7160   12.1680 C.ar    4  TRP4        0.0001
     40  CH2        1.7080   -0.5940   11.8100 C.ar    4  TRP4        0.0015
     41  N         11.2580   -9.8100   11.5460 N.3     9  HIS9       -0.1226
     42  CA        12.3250   -8.8190   11.6010 C.3     9  HIS9        0.1752
     43  C         11.8400   -7.4120   11.8820 C.2     9  HIS9        0.2596
     44  O         12.6490   -6.5240   12.1570 O.2     9  HIS9       -0.2718
     45  CB        13.1550   -8.9070   10.3060 C.3     9  HIS9        0.0759
     46  CG        13.7410  -10.2750   10.1440 C.ar    9  HIS9        0.0818
     47  ND1       14.7440  -10.7880   10.9310 N.ar    9  HIS9       -0.2268
     48  CD2       13.3950  -11.2500    9.2790 C.ar    9  HIS9        0.1154
     49  CE1       15.0140  -12.0220   10.5300 C.ar    9  HIS9        0.1986
     50  NE2       14.2210  -12.3320    9.5300 N.ar    9  HIS9       -0.2212
     51  N         10.5190   -7.1590   11.8140 N.am   10  ASN10      -0.1974
     52  CA        10.0320   -5.7960   12.0370 C.3    10  ASN10       0.1688
     53  C          8.7760   -5.7460   12.9100 C.2    10  ASN10       0.2292
     54  O          8.0950   -4.7170   12.9710 O.2    10  ASN10      -0.2864
     55  CB         9.8080   -5.0620   10.7300 C.3    10  ASN10       0.1181
     56  CG         8.7250   -5.6770    9.8830 C.2    10  ASN10       0.2629
     57  OD1        8.1540   -6.6530   10.2780 O.2    10  ASN10      -0.2716
     58  ND2        8.4190   -5.0850    8.7280 N.am   10  ASN10      -0.0877
     59  N         10.1040   -5.7340   18.0230 N.3    14  HIS14      -0.1226
     60  CA        11.0700   -4.7390   17.5860 C.3    14  HIS14       0.1752
     61  C         10.5860   -3.3140   17.7690 C.2    14  HIS14       0.2596
     62  O         11.3940   -2.3980   17.7170 O.2    14  HIS14      -0.2718
     63  CB        11.4020   -4.9490   16.1110 C.3    14  HIS14       0.0759
     64  CG        12.1410   -6.1980   15.7930 C.ar   14  HIS14       0.0818
     65  ND1       13.3970   -6.4530   15.9060 N.ar   14  HIS14      -0.2268
     66  CD2       11.6950   -7.4020   15.3760 C.ar   14  HIS14       0.1154
     67  CE1       13.8750   -7.5070   15.5350 C.ar   14  HIS14       0.1986
     68  NE2       12.8280   -8.1940   15.2200 N.ar   14  HIS14      -0.2212
     69  N          9.2430   -3.1080   17.9180 N.am   15  TRP15      -0.1976
     70  CA         8.7160   -1.7340   17.8230 C.3    15  TRP15       0.1640
     71  C          9.3100   -0.7900   18.8480 C.2    15  TRP15       0.2290
     72  O          9.4500    0.4150   18.5560 O.2    15  TRP15      -0.2864
     73  CB         7.1840   -1.8070   18.0090 C.3    15  TRP15       0.0576
     74  CG         6.4630   -2.5030   16.8540 C.ar   15  TRP15       0.0006
     75  CD1        6.9690   -2.9380   15.6780 C.ar   15  TRP15       0.0946
     76  CD2        5.0710   -2.8320   16.8380 C.ar   15  TRP15       0.0152
     77  NE1        5.9920   -3.5260   14.9030 N.ar   15  TRP15      -0.2442
     78  CE2        4.8070   -3.4660   15.6140 C.ar   15  TRP15       0.0810
     79  CE3        4.0380   -2.6540   17.7800 C.ar   15  TRP15       0.0012
     80  CZ2        3.5400   -3.9100   15.2680 C.ar   15  TRP15       0.0191
     81  CZ3        2.7640   -3.1020   17.4180 C.ar   15  TRP15       0.0001
     82  CH2        2.5320   -3.7070   16.2010 C.ar   15  TRP15       0.0015
     83  N         12.1830   -0.1520   19.7490 N.3    17  LYS17      -0.1231
     84  CA        13.4360    0.5910   19.3880 C.3    17  LYS17       0.1693
     85  C         13.1540    1.8800   18.7090 C.2    17  LYS17       0.2592
     86  O         13.9440    2.8080   18.8230 O.2    17  LYS17      -0.2718
     87  CB        14.2990   -0.3340   18.5180 C.3    17  LYS17       0.0285
     88  CG        14.8470   -1.5210   19.3090 C.3    17  LYS17       0.0035
     89  CD        15.6480   -2.4170   18.4120 C.3    17  LYS17       0.0206
     90  CE        14.7170   -3.4090   17.6980 C.3    17  LYS17       0.1093
     91  NZ        15.5140   -3.9430   16.6100 N.3    17  LYS17      -0.1314
     92  N         12.0830    2.0160   17.9600 N.am   18  ASP18      -0.1960
     93  CA        11.7380    3.3000   17.3530 C.3    18  ASP18       0.1840
     94  C         10.5560    3.9740   18.0160 C.2    18  ASP18       0.2622
     95  O         10.3580    5.1500   17.7880 O.2    18  ASP18      -0.2715
     96  CB        11.4370    3.1080   15.8410 C.3    18  ASP18       0.1450
     97  CG        12.7870    2.7910   15.2100 C.2    18  ASP18       0.3671
     98  OD1       13.5410    3.7390   14.8920 O.co2  18  ASP18      -0.2456
     99  OD2       13.1960    1.6400   15.0580 O.co2  18  ASP18      -0.2456
    100  N          9.8230    3.2510   18.8750 N.am   19  PHE19      -0.1974
    101  CA         8.6430    3.7750   19.5590 C.3    19  PHE19       0.1639
    102  C          8.7440    3.3160   21.0060 C.2    19  PHE19       0.2290
    103  O          8.1270    2.3310   21.4340 O.2    19  PHE19      -0.2864
    104  CB         7.3590    3.2590   18.8860 C.3    19  PHE19       0.0560
    105  CG         7.3110    3.5870   17.4200 C.ar   19  PHE19      -0.0200
    106  CD1        6.8560    4.8150   16.9700 C.ar   19  PHE19      -0.0042
    107  CD2        7.7620    2.6700   16.4740 C.ar   19  PHE19      -0.0042
    108  CE1        6.8800    5.1650   15.6120 C.ar   19  PHE19      -0.0003
    109  CE2        7.7900    3.0020   15.1230 C.ar   19  PHE19      -0.0003
    110  CZ         7.3510    4.2160   14.6950 C.ar   19  PHE19      -0.0000
@<TRIPOS>BOND
     1    25    26   ar
     2    25    23   ar
     3    26    24   ar
     4    23    22   ar
     5     6     5    1
     6     5     2    1
     7    24    22   ar
     8    22    21    1
     9    10     9    2
    10     2     1    1
    11     2     3    1
    12    21    18    1
    13     3     7   am
    14     3     4    2
    15     9    17   am
    16     9     8    1
    17     7     8    1
    18    18    17    1
    19    18    19    1
    20    58    56   am
    21    48    50   ar
    22    48    46   ar
    23     8    11    1
    24    20    19    2
    25    11    12    1
    26    19    27   am
    27    50    49   ar
    28    30    29    2
    29    56    57    2
    30    56    55    1
    31    46    45    1
    32    46    47   ar
    33    45    42    1
    34    27    28    1
    35    49    47   ar
    36    29    28    1
    37    12    13   ar
    38    12    14   ar
    39    55    52    1
    40    13    15   ar
    41    14    16   ar
    42    28    31    1
    43    41    42    1
    44    38    36   ar
    45    38    40   ar
    46    35    36   ar
    47    35    33   ar
    48    42    43    1
    49    36    34   ar
    50    40    39   ar
    51    51    43   am
    52    51    52    1
    53    33    32   ar
    54    43    44    2
    55    15    16   ar
    56    52    53    1
    57    34    32   ar
    58    34    37   ar
    59    32    31    1
    60    39    37   ar
    61    53    54    2
    62   110   109   ar
    63   110   108   ar
    64    98    97   ar
    65    77    78   ar
    66    77    75   ar
    67    99    97   ar
    68   109   107   ar
    69    97    96    1
    70    68    66   ar
    71    68    67   ar
    72    80    78   ar
    73    80    82   ar
    74    66    64   ar
    75    67    65   ar
    76   108   106   ar
    77    78    76   ar
    78    75    74   ar
    79    64    65   ar
    80    64    63    1
    81    96    93    1
    82    63    60    1
    83    82    81   ar
    84   107   105   ar
    85    91    90    1
    86    76    74   ar
    87    76    79   ar
    88    74    73    1
    89   106   105   ar
    90    93    92    1
    91    93    94    1
    92    81    79   ar
    93   105   104    1
    94    60    61    1
    95    60    59    1
    96    90    89    1
    97    62    61    2
    98    61    69   am
    99    95    94    2
   100    70    69    1
   101    70    73    1
   102    70    71    1
   103    92    85   am
   104    94   100   am
   105    89    88    1
   106    87    88    1
   107    87    84    1
   108    72    71    2
   109    85    86    2
   110    85    84    1
   111   100   101    1
   112   104   101    1
   113    84    83    1
   114   101   102    1
   115   102   103    2
