@<TRIPOS>MOLECULE
tmp/2nnoA00.pdb
 124 123 0 0 0
SMALL
GASTEIGER

@<TRIPOS>ATOM
      1  N          9.1430    5.1390    8.5640 N.3     2  HIS2       -0.1241
      2  CA         8.5170    4.0170    9.2810 C.3     2  HIS2        0.1621
      3  C          8.7350    2.7050    8.4980 C.2     2  HIS2        0.2264
      4  O          8.4460    2.6150    7.3030 O.2     2  HIS2       -0.2867
      5  CB         7.0590    4.2450    9.4680 C.3     2  HIS2        0.0745
      6  CG         6.6880    5.2260   10.5360 C.ar    2  HIS2        0.0817
      7  ND1        5.3900    5.3200   11.0030 N.ar    2  HIS2       -0.2268
      8  CD2        7.4530    6.0950   11.2350 C.ar    2  HIS2        0.1154
      9  CE1        5.3500    6.2460   11.9460 C.ar    2  HIS2        0.1986
     10  NE2        6.5690    6.7290   12.0960 N.ar    2  HIS2       -0.2212
     11  N        -12.7090    6.2190   11.1560 N.3    91  GLN91      -0.1245
     12  CA       -12.4170    5.0750   10.3160 C.3    91  GLN91       0.1566
     13  C        -12.6930    3.8160   11.1070 C.2    91  GLN91       0.2260
     14  O        -12.7160    3.8470   12.3510 O.2    91  GLN91      -0.2867
     15  CB       -10.9730    5.0920    9.8420 C.3    91  GLN91       0.0367
     16  CG        -9.9260    5.1900   10.9430 C.3    91  GLN91       0.0905
     17  CD        -9.1140    3.9310   11.1480 C.2    91  GLN91       0.2608
     18  OE1       -9.6280    2.8420   11.1580 O.2    91  GLN91      -0.2717
     19  NE2       -7.8260    4.1020   11.3580 N.am   91  GLN91      -0.0878
     20  N        -11.2310   -0.4670   10.9000 N.3    93  HIS93      -0.1241
     21  CA       -10.3460   -1.4540   10.3080 C.3    93  HIS93       0.1621
     22  C        -10.4170   -2.7380   11.1420 C.2    93  HIS93       0.2264
     23  O        -11.0530   -2.7430   12.2120 O.2    93  HIS93      -0.2867
     24  CB        -8.9020   -0.9600   10.2320 C.3    93  HIS93       0.0745
     25  CG        -8.3500   -0.6600   11.5830 C.ar   93  HIS93       0.0817
     26  ND1       -8.5080    0.5500   12.2210 N.ar   93  HIS93      -0.2268
     27  CD2       -7.7140   -1.4720   12.4660 C.ar   93  HIS93       0.1154
     28  CE1       -7.9910    0.4400   13.4490 C.ar   93  HIS93       0.1986
     29  NE2       -7.4770   -0.7770   13.6490 N.ar   93  HIS93      -0.2212
     30  N         -8.0700   -6.4500   12.4710 N.3    95  HIS95      -0.1241
     31  CA        -6.8740   -7.2370   12.6290 C.3    95  HIS95       0.1621
     32  C         -7.3000   -8.7150   12.5490 C.2    95  HIS95       0.2264
     33  O         -8.3770   -9.0530   13.0530 O.2    95  HIS95      -0.2867
     34  CB        -6.1770   -6.9910   13.9830 C.3    95  HIS95       0.0745
     35  CG        -5.9020   -5.5430   14.2220 C.ar   95  HIS95       0.0817
     36  ND1       -4.6840   -4.9650   13.9900 N.ar   95  HIS95      -0.2268
     37  CD2       -6.7010   -4.5140   14.6330 C.ar   95  HIS95       0.1154
     38  CE1       -4.7610   -3.6690   14.2700 C.ar   95  HIS95       0.1986
     39  NE2       -5.9790   -3.3530   14.6540 N.ar   95  HIS95      -0.2212
     40  N        -12.0250   -2.6260   14.8580 N.3   118  HIS118     -0.1241
     41  CA       -11.7880   -1.4060   15.5860 C.3   118  HIS118      0.1621
     42  C        -12.4620   -0.2430   14.8810 C.2   118  HIS118      0.2264
     43  O        -12.0810    0.1250   13.7670 O.2   118  HIS118     -0.2867
     44  CB       -10.2770   -1.1200   15.6650 C.3   118  HIS118      0.0745
     45  CG        -9.5460   -2.0830   16.5410 C.ar  118  HIS118      0.0817
     46  ND1       -8.1770   -2.2880   16.5100 N.ar  118  HIS118     -0.2268
     47  CD2      -10.0850   -2.9020   17.4960 C.ar  118  HIS118      0.1154
     48  CE1       -7.9020   -3.2080   17.4230 C.ar  118  HIS118      0.1986
     49  NE2       -9.0220   -3.5870   18.0500 N.ar  118  HIS118     -0.2212
     50  N        -12.7360    3.5940   15.1950 N.3   120  VAL120     -0.1245
     51  CA       -11.8730    4.6000   15.7940 C.3   120  VAL120      0.1561
     52  C        -12.5600    5.9530   15.8180 C.2   120  VAL120      0.2260
     53  O        -13.0820    6.4070   14.7930 O.2   120  VAL120     -0.2867
     54  CB       -10.5540    4.7000   14.9950 C.3   120  VAL120      0.0252
     55  CG1       -9.5970    5.6950   15.6310 C.3   120  VAL120      0.0019
     56  CG2       -9.8940    3.3270   14.8140 C.3   120  VAL120      0.0019
     57  N         -8.1800   14.9580   14.7320 N.3   129  PHE129     -0.1241
     58  CA        -7.5440   13.7460   15.1670 C.3   129  PHE129      0.1605
     59  C         -6.1090   13.9900   15.6340 C.2   129  PHE129      0.2264
     60  O         -5.6520   13.4190   16.6210 O.2   129  PHE129     -0.2867
     61  CB        -7.6400   12.7160   14.0400 C.3   129  PHE129      0.0534
     62  CG        -7.0200   11.3810   14.3610 C.ar  129  PHE129     -0.0203
     63  CD1       -7.7910   10.3800   14.8780 C.ar  129  PHE129     -0.0042
     64  CD2       -5.6840   11.1020   14.1550 C.ar  129  PHE129     -0.0042
     65  CE1       -7.2650    9.1400   15.1670 C.ar  129  PHE129     -0.0003
     66  CE2       -5.1590    9.8830   14.4320 C.ar  129  PHE129     -0.0003
     67  CZ        -5.9100    8.8770   14.9650 C.ar  129  PHE129     -0.0000
     68  N        -11.8290    3.7850   21.0270 N.3   141  VAL141     -0.1245
     69  CA       -11.8950    2.7180   20.0610 C.3   141  VAL141      0.1561
     70  C        -12.8780    1.6870   20.5600 C.2   141  VAL141      0.2260
     71  O        -12.7430    1.1900   21.6750 O.2   141  VAL141     -0.2867
     72  CB       -10.5230    2.1150   19.6720 C.3   141  VAL141      0.0252
     73  CG1      -10.7210    1.0730   18.5670 C.3   141  VAL141      0.0019
     74  CG2       -9.5600    3.1830   19.2140 C.3   141  VAL141      0.0019
     75  N         -2.9900    3.1860   21.1800 N.3   196  LEU196     -0.1231
     76  CA        -3.0110    2.6180   19.8390 C.3   196  LEU196      0.1693
     77  C         -2.2740    1.2720   19.8810 C.2   196  LEU196      0.2593
     78  O         -1.2550    1.1340   20.5760 O.2   196  LEU196     -0.2718
     79  CB        -2.2850    3.5410   18.8400 C.3   196  LEU196      0.0284
     80  CG        -2.8320    4.9660   18.7180 C.3   196  LEU196      0.0019
     81  CD1       -1.9580    5.7270   17.7240 C.3   196  LEU196      0.0001
     82  CD2       -4.2890    4.9500   18.2460 C.3   196  LEU196      0.0001
     83  N         -2.7100    0.3160   19.0860 N.am  197  THR197     -0.1939
     84  CA        -2.0670   -1.0130   19.0460 C.3   197  THR197      0.2028
     85  C         -1.0580   -1.1460   17.9270 C.2   197  THR197      0.2643
     86  O         -0.4520   -2.2290   17.7970 O.2   197  THR197     -0.2714
     87  CB        -3.0830   -2.1750   18.9370 C.3   197  THR197      0.1808
     88  OG1       -3.6550   -2.0850   17.6370 O.3   197  THR197     -0.2208
     89  CG2       -4.1530   -2.1190   20.0080 C.3   197  THR197      0.0379
     90  N         -0.8490   -0.0990   17.1440 N.am  198  THR198     -0.1937
     91  CA         0.2310   -0.0500   16.1860 C.3   198  THR198      0.2013
     92  C          1.0820    1.1710   16.4710 C.2   198  THR198      0.2484
     93  O          0.5640    2.1180   17.0600 O.2   198  THR198     -0.2729
     94  CB        -0.2170    0.0510   14.7230 C.3   198  THR198      0.1807
     95  OG1       -0.6880    1.3660   14.4060 O.3   198  THR198     -0.2208
     96  CG2       -1.2990   -0.9430   14.4010 C.3   198  THR198      0.0379
     97  N          2.3220    1.2000   16.0050 N.am  199  PRO199     -0.2715
     98  CA         3.0970    2.4760   16.0120 C.3   199  PRO199      0.1521
     99  C          2.2140    3.5710   15.4510 C.2   199  PRO199      0.2440
    100  O          1.4890    3.3520   14.4680 O.2   199  PRO199     -0.2731
    101  CB         4.2990    2.1380   15.1660 C.3   199  PRO199      0.0310
    102  CG         4.5390    0.6800   15.4810 C.3   199  PRO199      0.0237
    103  CD         3.1290    0.0990   15.4400 C.3   199  PRO199      0.0939
    104  N          2.2120    4.7480   16.0520 N.am  200  PRO200     -0.2727
    105  CA         3.1020    5.2250   17.1280 C.3   200  PRO200      0.1402
    106  C          2.7210    4.8350   18.5460 C.2   200  PRO200      0.2269
    107  O          3.3950    5.3360   19.4770 O.2   200  PRO200     -0.2865
    108  CB         3.0580    6.7620   16.8880 C.3   200  PRO200      0.0296
    109  CG         1.6760    7.0210   16.3760 C.3   200  PRO200      0.0237
    110  CD         1.4300    5.8420   15.4840 C.3   200  PRO200      0.0939
    111  N        -10.5060    2.3210   25.5840 N.3   206  TRP206     -0.1241
    112  CA       -10.9430    1.1320   24.8920 C.3   206  TRP206      0.1605
    113  C        -12.3150    0.7110   25.4130 C.2   206  TRP206      0.2264
    114  O        -12.5130    0.6690   26.6380 O.2   206  TRP206     -0.2867
    115  CB        -9.9380   -0.0390   25.0940 C.3   206  TRP206      0.0550
    116  CG        -8.8080    0.1250   24.1230 C.ar  206  TRP206      0.0003
    117  CD1       -7.5830    0.7190   24.2890 C.ar  206  TRP206      0.0946
    118  CD2       -8.8520   -0.2930   22.7530 C.ar  206  TRP206      0.0152
    119  NE1       -6.8730    0.6850   23.1270 N.ar  206  TRP206     -0.2442
    120  CE2       -7.6230    0.0620   22.1700 C.ar  206  TRP206      0.0810
    121  CE3       -9.8100   -0.9700   21.9780 C.ar  206  TRP206      0.0012
    122  CZ2       -7.3390   -0.2120   20.8140 C.ar  206  TRP206      0.0191
    123  CZ3       -9.5280   -1.2450   20.6540 C.ar  206  TRP206      0.0001
    124  CH2       -8.2920   -0.8540   20.1030 C.ar  206  TRP206      0.0015
@<TRIPOS>BOND
     1     4     3    2
     2     3     2    1
     3     1     2    1
     4     2     5    1
     5     5     6    1
     6    15    12    1
     7    15    16    1
     8    24    21    1
     9    24    25    1
    10    21    20    1
    11    21    22    1
    12    12    13    1
    13    12    11    1
    14     6     7   ar
    15     6     8   ar
    16    16    17    1
    17     7     9   ar
    18    13    14    2
    19    22    23    2
    20    17    18    2
    21    17    19   am
    22     8    10   ar
    23    25    26   ar
    24    25    27   ar
    25     9    10   ar
    26    26    28   ar
    27    27    29   ar
    28    30    31    1
    29    32    31    1
    30    32    33    2
    31    31    34    1
    32    28    29   ar
    33    43    42    2
    34    34    35    1
    35    36    35   ar
    36    36    38   ar
    37    61    62    1
    38    61    58    1
    39    64    62   ar
    40    64    66   ar
    41    35    37   ar
    42    38    39   ar
    43    62    63   ar
    44    96    94    1
    45    95    94    1
    46    66    67   ar
    47   100    99    2
    48    37    39   ar
    49    94    91    1
    50    57    58    1
    51    53    52    2
    52    56    54    1
    53    40    41    1
    54    63    65   ar
    55    42    41    1
    56    67    65   ar
    57    54    55    1
    58    54    51    1
    59   101   102    1
    60   101    98    1
    61    58    59    1
    62    50    51    1
    63   103   102    1
    64   103    97    1
    65    99    98    1
    66    99   104   am
    67   110   104    1
    68   110   109    1
    69    41    44    1
    70    59    60    2
    71    44    45    1
    72    51    52    1
    73    97    98    1
    74    97    92   am
    75   104   105    1
    76    91    92    1
    77    91    90    1
    78   109   108    1
    79    92    93    2
    80    46    45   ar
    81    46    48   ar
    82    45    47   ar
    83   108   105    1
    84   105   106    1
    85    90    85   am
    86    48    49   ar
    87    47    49   ar
    88    88    87    1
    89    81    80    1
    90    86    85    2
    91    85    84    1
    92    82    80    1
    93   106   107    2
    94    73    72    1
    95    80    79    1
    96    79    76    1
    97    87    84    1
    98    87    89    1
    99    84    83    1
   100    83    77   am
   101    74    72    1
   102    72    69    1
   103    76    77    1
   104    76    75    1
   105    77    78    2
   106    69    70    1
   107    69    68    1
   108   124   123   ar
   109   124   122   ar
   110    70    71    2
   111   123   121   ar
   112   122   120   ar
   113   121   118   ar
   114   120   118   ar
   115   120   119   ar
   116   118   116   ar
   117   119   117   ar
   118   116   117   ar
   119   116   115    1
   120   112   115    1
   121   112   113    1
   122   112   111    1
   123   113   114    2
