@<TRIPOS>MOLECULE
tmp/2nnvA01.pdb
 110 115 0 0 0
SMALL
GASTEIGER

@<TRIPOS>ATOM
      1  N         12.4400    6.3380    7.8950 N.3     1  SER1       -0.1202
      2  CA        11.0670    6.0560    7.4430 C.3     1  SER1        0.2020
      3  C         10.4200    5.0060    8.2920 C.2     1  SER1        0.2619
      4  O         11.1090    4.1820    8.8430 O.2     1  SER1       -0.2717
      5  CB        11.1210    5.4980    6.0130 C.3     1  SER1        0.2103
      6  OG        10.7720    4.1020    6.0520 O.3     1  SER1       -0.2182
      7  N          9.1080    4.8850    8.3940 N.am    2  HIS2       -0.1961
      8  CA         8.5460    3.7750    9.1560 C.3     2  HIS2        0.1787
      9  C          8.7640    2.4730    8.3780 C.2     2  HIS2        0.2620
     10  O          8.4670    2.4090    7.1840 O.2     2  HIS2       -0.2715
     11  CB         7.0820    3.9820    9.4720 C.3     2  HIS2        0.0785
     12  CG         6.7770    5.0700   10.4790 C.ar    2  HIS2        0.0821
     13  ND1        5.4940    5.2880   10.9540 N.ar    2  HIS2       -0.2267
     14  CD2        7.5220    6.0060   11.0960 C.ar    2  HIS2        0.1154
     15  CE1        5.4770    6.2950   11.8170 C.ar    2  HIS2        0.1986
     16  NE2        6.7090    6.7520   11.9170 N.ar    2  HIS2       -0.2212
     17  N          9.2640    1.4580    9.0570 N.am    3  HIS3       -0.1959
     18  CA         9.4880    0.1140    8.5170 C.3     3  HIS3        0.1787
     19  C          9.0300   -0.9930    9.4560 C.2     3  HIS3        0.2620
     20  O          9.4040   -2.1540    9.3510 O.2     3  HIS3       -0.2715
     21  CB        10.9620   -0.0730    8.1320 C.3     3  HIS3        0.0785
     22  CG        11.4090    0.6850    6.9570 C.ar    3  HIS3        0.0821
     23  ND1       10.5570    0.8560    5.8660 N.ar    3  HIS3       -0.2267
     24  CD2       12.5600    1.2840    6.6200 C.ar    3  HIS3        0.1154
     25  CE1       11.1910    1.5490    4.9400 C.ar    3  HIS3        0.1986
     26  NE2       12.4120    1.8320    5.3650 N.ar    3  HIS3       -0.2212
     27  N          8.1590   -0.6110   10.4030 N.am    4  TRP4       -0.1974
     28  CA         7.5910   -1.6030   11.2980 C.3     4  TRP4        0.1640
     29  C          6.5700   -2.4300   10.5510 C.2     4  TRP4        0.2290
     30  O          5.9840   -1.9920    9.5580 O.2     4  TRP4       -0.2864
     31  CB         6.9400   -0.8970   12.5180 C.3     4  TRP4        0.0576
     32  CG         5.7490   -0.0730   12.1700 C.ar    4  TRP4        0.0006
     33  CD1        5.7010    1.2500   11.8480 C.ar    4  TRP4        0.0946
     34  CD2        4.3780   -0.5300   12.1270 C.ar    4  TRP4        0.0152
     35  NE1        4.4240    1.6450   11.5980 N.ar    4  TRP4       -0.2442
     36  CE2        3.5940    0.5690   11.7570 C.ar    4  TRP4        0.0810
     37  CE3        3.7810   -1.7940   12.3570 C.ar    4  TRP4        0.0012
     38  CZ2        2.2030    0.4390   11.6140 C.ar    4  TRP4        0.0191
     39  CZ3        2.3900   -1.8900   12.2060 C.ar    4  TRP4        0.0001
     40  CH2        1.6550   -0.7850   11.8530 C.ar    4  TRP4        0.0015
     41  N         11.1470   -9.9310   11.3460 N.3     9  HIS9       -0.1226
     42  CA        12.2010   -8.9520   11.3640 C.3     9  HIS9        0.1752
     43  C         11.7320   -7.5630   11.7000 C.2     9  HIS9        0.2596
     44  O         12.5720   -6.6840   11.9600 O.2     9  HIS9       -0.2718
     45  CB        12.9990   -9.0710   10.0530 C.3     9  HIS9        0.0759
     46  CG        13.5650  -10.4570    9.9080 C.ar    9  HIS9        0.0818
     47  ND1       13.1340  -11.3810    8.9680 N.ar    9  HIS9       -0.2268
     48  CD2       14.5580  -11.0670   10.6170 C.ar    9  HIS9        0.1154
     49  CE1       13.8170  -12.4980    9.0900 C.ar    9  HIS9        0.1986
     50  NE2       14.6700  -12.3260   10.0840 N.ar    9  HIS9       -0.2212
     51  N         10.4360   -7.2780   11.7420 N.am   10  ASN10      -0.1974
     52  CA         9.9650   -5.9300   12.0340 C.3    10  ASN10       0.1688
     53  C          8.6840   -5.9220   12.8860 C.2    10  ASN10       0.2292
     54  O          8.0170   -4.8600   12.9380 O.2    10  ASN10      -0.2864
     55  CB         9.7400   -5.1590   10.7080 C.3    10  ASN10       0.1181
     56  CG         8.6790   -5.7630    9.8380 C.2    10  ASN10       0.2629
     57  OD1        8.1270   -6.8120   10.1240 O.2    10  ASN10      -0.2716
     58  ND2        8.3360   -5.1120    8.7170 N.am   10  ASN10      -0.0877
     59  N         10.0630   -5.8980   17.9240 N.3    14  HIS14      -0.1226
     60  CA        11.0550   -4.9340   17.4930 C.3    14  HIS14       0.1752
     61  C         10.5590   -3.5110   17.7030 C.2    14  HIS14       0.2596
     62  O         11.3630   -2.5830   17.6820 O.2    14  HIS14      -0.2718
     63  CB        11.3630   -5.0990   16.0000 C.3    14  HIS14       0.0759
     64  CG        12.0960   -6.3400   15.6420 C.ar   14  HIS14       0.0818
     65  ND1       13.3890   -6.5470   15.6380 N.ar   14  HIS14      -0.2268
     66  CD2       11.6820   -7.5570   15.2530 C.ar   14  HIS14       0.1154
     67  CE1       13.8770   -7.6210   15.3170 C.ar   14  HIS14       0.1986
     68  NE2       12.8070   -8.3130   15.0560 N.ar   14  HIS14      -0.2212
     69  N          9.2300   -3.2990   17.8510 N.am   15  TRP15      -0.1976
     70  CA         8.6880   -1.9720   17.7850 C.3    15  TRP15       0.1640
     71  C          9.2810   -1.0020   18.8050 C.2    15  TRP15       0.2290
     72  O          9.4270    0.2080   18.5190 O.2    15  TRP15      -0.2864
     73  CB         7.1400   -2.0120   17.9810 C.3    15  TRP15       0.0576
     74  CG         6.4160   -2.6990   16.8460 C.ar   15  TRP15       0.0006
     75  CD1        6.8950   -3.1270   15.6600 C.ar   15  TRP15       0.0946
     76  CD2        5.0200   -3.0180   16.8390 C.ar   15  TRP15       0.0152
     77  NE1        5.9210   -3.6970   14.8960 N.ar   15  TRP15      -0.2442
     78  CE2        4.7360   -3.6420   15.6190 C.ar   15  TRP15       0.0810
     79  CE3        3.9710   -2.8650   17.7580 C.ar   15  TRP15       0.0012
     80  CZ2        3.4790   -4.0820   15.2530 C.ar   15  TRP15       0.0191
     81  CZ3        2.7300   -3.2910   17.4250 C.ar   15  TRP15       0.0001
     82  CH2        2.4620   -3.9020   16.1990 C.ar   15  TRP15       0.0015
     83  N         12.1680   -0.4020   19.7410 N.3    17  LYS17      -0.1231
     84  CA        13.4070    0.3210   19.3550 C.3    17  LYS17       0.1693
     85  C         13.1640    1.6220   18.6550 C.2    17  LYS17       0.2592
     86  O         14.0120    2.5250   18.7210 O.2    17  LYS17      -0.2718
     87  CB        14.2400   -0.5920   18.4530 C.3    17  LYS17       0.0285
     88  CG        14.8220   -1.7560   19.2610 C.3    17  LYS17       0.0035
     89  CD        15.6110   -2.6600   18.4040 C.3    17  LYS17       0.0206
     90  CE        14.7030   -3.6170   17.6160 C.3    17  LYS17       0.1093
     91  NZ        15.6180   -4.0930   16.5980 N.3    17  LYS17      -0.1314
     92  N         12.0410    1.7850   17.9580 N.am   18  ASP18      -0.1960
     93  CA        11.7190    3.0830   17.3670 C.3    18  ASP18       0.1840
     94  C         10.5250    3.7640   18.0070 C.2    18  ASP18       0.2622
     95  O         10.3220    4.9520   17.7580 O.2    18  ASP18      -0.2715
     96  CB        11.4800    2.9070   15.8300 C.3    18  ASP18       0.1450
     97  CG        12.7950    2.5950   15.1380 C.2    18  ASP18       0.3671
     98  OD1       13.5060    3.5600   14.8080 O.co2  18  ASP18      -0.2456
     99  OD2       13.1560    1.4210   15.0010 O.co2  18  ASP18      -0.2456
    100  N          9.7800    3.0420   18.8380 N.am   19  PHE19      -0.1974
    101  CA         8.5970    3.5500   19.5430 C.3    19  PHE19       0.1639
    102  C          8.7090    3.0880   20.9850 C.2    19  PHE19       0.2290
    103  O          8.0380    2.1090   21.3900 O.2    19  PHE19      -0.2864
    104  CB         7.3250    2.9960   18.8850 C.3    19  PHE19       0.0560
    105  CG         7.2890    3.3460   17.4150 C.ar   19  PHE19      -0.0200
    106  CD1        6.8270    4.5750   16.9640 C.ar   19  PHE19      -0.0042
    107  CD2        7.7590    2.4430   16.4760 C.ar   19  PHE19      -0.0042
    108  CE1        6.8680    4.9260   15.6030 C.ar   19  PHE19      -0.0003
    109  CE2        7.8050    2.7450   15.1250 C.ar   19  PHE19      -0.0003
    110  CZ         7.3370    3.9680   14.7160 C.ar   19  PHE19      -0.0000
@<TRIPOS>BOND
     1    25    26   ar
     2    25    23   ar
     3    26    24   ar
     4    23    22   ar
     5     5     6    1
     6     5     2    1
     7    24    22   ar
     8    22    21    1
     9    10     9    2
    10     2     1    1
    11     2     3    1
    12    21    18    1
    13     3     7   am
    14     3     4    2
    15     9    17   am
    16     9     8    1
    17     7     8    1
    18    18    17    1
    19    18    19    1
    20    58    56   am
    21    47    49   ar
    22    47    46   ar
    23    49    50   ar
    24     8    11    1
    25    20    19    2
    26    19    27   am
    27    11    12    1
    28    30    29    2
    29    56    57    2
    30    56    55    1
    31    46    45    1
    32    46    48   ar
    33    45    42    1
    34    50    48   ar
    35    27    28    1
    36    12    13   ar
    37    12    14   ar
    38    29    28    1
    39    55    52    1
    40    13    15   ar
    41    14    16   ar
    42    28    31    1
    43    41    42    1
    44    42    43    1
    45    35    36   ar
    46    35    33   ar
    47    38    36   ar
    48    38    40   ar
    49    43    51   am
    50    43    44    2
    51    51    52    1
    52    36    34   ar
    53    15    16   ar
    54    33    32   ar
    55    40    39   ar
    56    52    53    1
    57    34    32   ar
    58    34    37   ar
    59    32    31    1
    60    39    37   ar
    61    53    54    2
    62   110   109   ar
    63   110   108   ar
    64    98    97   ar
    65    77    78   ar
    66    77    75   ar
    67    99    97   ar
    68    68    66   ar
    69    68    67   ar
    70   109   107   ar
    71    97    96    1
    72    66    64   ar
    73    80    78   ar
    74    80    82   ar
    75    67    65   ar
    76   108   106   ar
    77    78    76   ar
    78    65    64   ar
    79    64    63    1
    80    75    74   ar
    81    96    93    1
    82    63    60    1
    83    82    81   ar
    84   107   105   ar
    85    91    90    1
    86    76    74   ar
    87    76    79   ar
    88    74    73    1
    89   106   105   ar
    90    93    92    1
    91    93    94    1
    92   105   104    1
    93    81    79   ar
    94    60    61    1
    95    60    59    1
    96    90    89    1
    97    62    61    2
    98    61    69   am
    99    95    94    2
   100    70    69    1
   101    70    73    1
   102    70    71    1
   103    92    85   am
   104    94   100   am
   105    89    88    1
   106    87    88    1
   107    87    84    1
   108    72    71    2
   109    85    86    2
   110    85    84    1
   111   100   101    1
   112   104   101    1
   113    84    83    1
   114   101   102    1
   115   102   103    2
