@<TRIPOS>MOLECULE
tmp/2nnvA00.pdb
 140 136 0 0 0
SMALL
GASTEIGER

@<TRIPOS>ATOM
      1  N        -12.7430    5.9810   11.1380 N.3    91  GLN91      -0.1245
      2  CA       -12.4240    4.8490   10.3040 C.3    91  GLN91       0.1566
      3  C        -12.7100    3.5820   11.0830 C.2    91  GLN91       0.2260
      4  O        -12.7400    3.6150   12.3080 O.2    91  GLN91      -0.2867
      5  CB       -10.9680    4.8450    9.8100 C.3    91  GLN91       0.0367
      6  CG        -9.9220    4.9690   10.9100 C.3    91  GLN91       0.0905
      7  CD        -9.1270    3.7120   11.1440 C.2    91  GLN91       0.2608
      8  OE1       -9.6250    2.6270   11.0860 O.2    91  GLN91      -0.2717
      9  NE2       -7.8730    3.9580   11.5390 N.am   91  GLN91      -0.0878
     10  N        -11.2630   -0.6940   10.8690 N.3    93  HIS93      -0.1241
     11  CA       -10.3660   -1.6890   10.2920 C.3    93  HIS93       0.1621
     12  C        -10.4300   -2.9460   11.1290 C.2    93  HIS93       0.2264
     13  O        -11.0580   -2.9630   12.1950 O.2    93  HIS93      -0.2867
     14  CB        -8.9420   -1.1600   10.2420 C.3    93  HIS93       0.0745
     15  CG        -8.4010   -0.8690   11.5860 C.ar   93  HIS93       0.0817
     16  ND1       -8.5700    0.3260   12.2060 N.ar   93  HIS93      -0.2268
     17  CD2       -7.7530   -1.6760   12.4580 C.ar   93  HIS93       0.1154
     18  CE1       -8.0170    0.2370   13.4270 C.ar   93  HIS93       0.1986
     19  NE2       -7.5260   -1.0050   13.6250 N.ar   93  HIS93      -0.2212
     20  N         -8.0780   -6.6320   12.4760 N.3    95  HIS95      -0.1241
     21  CA        -6.8930   -7.4180   12.6550 C.3    95  HIS95       0.1621
     22  C         -7.3120   -8.8930   12.5580 C.2    95  HIS95       0.2264
     23  O         -8.3960   -9.2470   13.0610 O.2    95  HIS95      -0.2867
     24  CB        -6.2010   -7.1670   13.9910 C.3    95  HIS95       0.0745
     25  CG        -5.9350   -5.7310   14.2340 C.ar   95  HIS95       0.0817
     26  ND1       -4.7170   -5.1420   14.0260 N.ar   95  HIS95      -0.2268
     27  CD2       -6.7250   -4.7100   14.6210 C.ar   95  HIS95       0.1154
     28  CE1       -4.8000   -3.8710   14.3010 C.ar   95  HIS95       0.1986
     29  NE2       -6.0450   -3.5450   14.6570 N.ar   95  HIS95      -0.2212
     30  N        -12.0640   -2.8350   14.8230 N.3   118  HIS118     -0.1241
     31  CA       -11.8110   -1.6010   15.5570 C.3   118  HIS118      0.1621
     32  C        -12.4930   -0.4330   14.8610 C.2   118  HIS118      0.2264
     33  O        -12.1230   -0.0980   13.7610 O.2   118  HIS118     -0.2867
     34  CB       -10.3030   -1.3220   15.6530 C.3   118  HIS118      0.0745
     35  CG        -9.5940   -2.2640   16.5460 C.ar  118  HIS118      0.0817
     36  ND1       -8.2310   -2.4870   16.5180 N.ar  118  HIS118     -0.2268
     37  CD2      -10.1150   -3.0890   17.4990 C.ar  118  HIS118      0.1154
     38  CE1       -7.9630   -3.4040   17.4490 C.ar  118  HIS118      0.1986
     39  NE2       -9.0900   -3.7870   18.0870 N.ar  118  HIS118     -0.2212
     40  N        -12.7850    3.3640   15.1540 N.3   120  VAL120     -0.1245
     41  CA       -11.9320    4.3450   15.7660 C.3   120  VAL120      0.1561
     42  C        -12.5960    5.7210   15.7800 C.2   120  VAL120      0.2260
     43  O        -13.1070    6.1760   14.7660 O.2   120  VAL120     -0.2867
     44  CB       -10.6130    4.4570   14.9490 C.3   120  VAL120      0.0252
     45  CG1       -9.6460    5.4760   15.5660 C.3   120  VAL120      0.0019
     46  CG2       -9.9500    3.1170   14.7920 C.3   120  VAL120      0.0019
     47  N         -8.1820   14.7220   14.7540 N.3   129  PHE129     -0.1227
     48  CA        -7.5480   13.5020   15.1780 C.3   129  PHE129      0.1736
     49  C         -6.1080   13.7240   15.6230 C.2   129  PHE129      0.2596
     50  O         -5.6510   13.1180   16.5740 O.2   129  PHE129     -0.2718
     51  CB        -7.6230   12.4930   14.0440 C.3   129  PHE129      0.0547
     52  CG        -7.0540   11.1550   14.3520 C.ar  129  PHE129     -0.0202
     53  CD1       -7.8720   10.1560   14.8730 C.ar  129  PHE129     -0.0042
     54  CD2       -5.7380   10.8100   14.1480 C.ar  129  PHE129     -0.0042
     55  CE1       -7.3240    8.9280   15.1630 C.ar  129  PHE129     -0.0003
     56  CE2       -5.1870    9.5880   14.4440 C.ar  129  PHE129     -0.0003
     57  CZ        -6.0110    8.6040   14.9390 C.ar  129  PHE129     -0.0000
     58  N         -5.3460   14.5510   14.9000 N.am  130  GLY130     -0.1957
     59  CA        -3.9280   14.7040   15.2380 C.3   130  GLY130      0.1869
     60  C         -3.7320   15.3670   16.5920 C.2   130  GLY130      0.2309
     61  O         -2.7940   15.0100   17.3120 O.2   130  GLY130     -0.2863
     62  N         -4.6480   12.7460   19.4330 N.3   133  VAL133     -0.1245
     63  CA        -3.6350   11.7530   19.8220 C.3   133  VAL133      0.1561
     64  C         -2.5010   12.4070   20.6140 C.2   133  VAL133      0.2260
     65  O         -1.4370   11.7840   20.8360 O.2   133  VAL133     -0.2867
     66  CB        -3.1070   10.9510   18.6500 C.3   133  VAL133      0.0252
     67  CG1       -4.2400   10.1960   17.9640 C.3   133  VAL133      0.0019
     68  CG2       -2.3940   11.7950   17.5880 C.3   133  VAL133      0.0019
     69  N        -11.8980    3.5730   21.0200 N.3   141  VAL141     -0.1245
     70  CA       -11.9510    2.5180   20.0040 C.3   141  VAL141      0.1561
     71  C        -12.9440    1.4850   20.5180 C.2   141  VAL141      0.2260
     72  O        -12.8040    0.9710   21.6400 O.2   141  VAL141     -0.2867
     73  CB       -10.5730    1.9060   19.6460 C.3   141  VAL141      0.0252
     74  CG1      -10.7750    0.8880   18.5440 C.3   141  VAL141      0.0019
     75  CG2       -9.6200    2.9840   19.1940 C.3   141  VAL141      0.0019
     76  N         -3.0380    2.9630   21.1870 N.3   196  LEU196     -0.1231
     77  CA        -3.0700    2.3880   19.8400 C.3   196  LEU196      0.1693
     78  C         -2.3260    1.0600   19.8910 C.2   196  LEU196      0.2593
     79  O         -1.3100    0.9150   20.5830 O.2   196  LEU196     -0.2718
     80  CB        -2.3660    3.3080   18.8580 C.3   196  LEU196      0.0284
     81  CG        -2.9100    4.7230   18.7300 C.3   196  LEU196      0.0019
     82  CD1       -1.9860    5.5310   17.8080 C.3   196  LEU196      0.0001
     83  CD2       -4.3290    4.7070   18.1800 C.3   196  LEU196      0.0001
     84  N         -2.7610    0.1110   19.0820 N.am  197  THR197     -0.1939
     85  CA        -2.1220   -1.2090   19.0830 C.3   197  THR197      0.2028
     86  C         -1.0990   -1.3410   17.9610 C.2   197  THR197      0.2643
     87  O         -0.4890   -2.4130   17.8250 O.2   197  THR197     -0.2714
     88  CB        -3.1180   -2.3500   18.9570 C.3   197  THR197      0.1808
     89  OG1       -3.7040   -2.2670   17.6490 O.3   197  THR197     -0.2208
     90  CG2       -4.1740   -2.2880   20.0340 C.3   197  THR197      0.0379
     91  N         -0.8640   -0.3000   17.1840 N.am  198  THR198     -0.1937
     92  CA         0.1940   -0.2540   16.2210 C.3   198  THR198      0.2013
     93  C          1.0620    0.9710   16.5440 C.2   198  THR198      0.2484
     94  O          0.5320    1.9240   17.1150 O.2   198  THR198     -0.2729
     95  CB        -0.2650   -0.1260   14.7500 C.3   198  THR198      0.1807
     96  OG1       -0.7460    1.1750   14.4490 O.3   198  THR198     -0.2208
     97  CG2       -1.3470   -1.1170   14.4170 C.3   198  THR198      0.0379
     98  N          2.3020    1.0010   16.0550 N.am  199  PRO199     -0.2715
     99  CA         3.0400    2.2720   16.0590 C.3   199  PRO199      0.1521
    100  C          2.1960    3.3760   15.4880 C.2   199  PRO199      0.2440
    101  O          1.4560    3.1500   14.5080 O.2   199  PRO199     -0.2731
    102  CB         4.2920    1.9440   15.1910 C.3   199  PRO199      0.0310
    103  CG         4.5070    0.5020   15.4950 C.3   199  PRO199      0.0237
    104  CD         3.1150   -0.0970   15.4740 C.3   199  PRO199      0.0939
    105  N          2.2060    4.5560   16.0810 N.am  200  PRO200     -0.2727
    106  CA         3.0930    5.0030   17.1660 C.3   200  PRO200      0.1402
    107  C          2.7280    4.5960   18.5890 C.2   200  PRO200      0.2269
    108  O          3.3960    5.0860   19.5260 O.2   200  PRO200     -0.2865
    109  CB         3.0880    6.5220   16.9840 C.3   200  PRO200      0.0296
    110  CG         1.7420    6.8120   16.4090 C.3   200  PRO200      0.0237
    111  CD         1.4390    5.6730   15.4820 C.3   200  PRO200      0.0939
    112  N          0.4900    5.2540   20.7600 N.3   202  LEU202     -0.1245
    113  CA         0.1950    6.3990   21.6420 C.3   202  LEU202      0.1561
    114  C         -0.8590    6.0550   22.6610 C.2   202  LEU202      0.2260
    115  O         -1.8550    5.3680   22.3590 O.2   202  LEU202     -0.2867
    116  CB        -0.2130    7.5930   20.7940 C.3   202  LEU202      0.0270
    117  CG         0.8580    8.0620   19.7890 C.3   202  LEU202      0.0019
    118  CD1        0.2750    9.1960   18.9480 C.3   202  LEU202      0.0001
    119  CD2        2.1810    8.5220   20.4530 C.3   202  LEU202      0.0001
    120  N         -6.1720    6.0910   24.2930 N.3   204  VAL204     -0.1245
    121  CA        -7.3890    5.3830   23.9220 C.3   204  VAL204      0.1561
    122  C         -8.1570    4.9280   25.1110 C.2   204  VAL204      0.2260
    123  O         -7.6290    4.2260   25.9810 O.2   204  VAL204     -0.2867
    124  CB        -7.0700    4.1410   23.0380 C.3   204  VAL204      0.0252
    125  CG1       -8.3550    3.4480   22.6340 C.3   204  VAL204      0.0019
    126  CG2       -6.2920    4.5240   21.7880 C.3   204  VAL204      0.0019
    127  N        -10.5840    2.1170   25.5440 N.3   206  TRP206     -0.1241
    128  CA       -11.0190    0.9340   24.8790 C.3   206  TRP206      0.1605
    129  C        -12.3900    0.5060   25.3950 C.2   206  TRP206      0.2264
    130  O        -12.6100    0.4650   26.6150 O.2   206  TRP206     -0.2867
    131  CB       -10.0100   -0.2470   25.0710 C.3   206  TRP206      0.0550
    132  CG        -8.8870   -0.0800   24.0950 C.ar  206  TRP206      0.0003
    133  CD1       -7.6720    0.5120   24.2990 C.ar  206  TRP206      0.0946
    134  CD2       -8.8990   -0.4930   22.7440 C.ar  206  TRP206      0.0152
    135  NE1       -6.9500    0.4790   23.1330 N.ar  206  TRP206     -0.2442
    136  CE2       -7.6710   -0.1340   22.1540 C.ar  206  TRP206      0.0810
    137  CE3       -9.8620   -1.1700   21.9380 C.ar  206  TRP206      0.0012
    138  CZ2       -7.3770   -0.4000   20.8220 C.ar  206  TRP206      0.0191
    139  CZ3       -9.5570   -1.4230   20.6390 C.ar  206  TRP206      0.0001
    140  CH2       -8.3320   -1.0510   20.0920 C.ar  206  TRP206      0.0015
@<TRIPOS>BOND
     1     5     2    1
     2     5     6    1
     3    14    11    1
     4    14    15    1
     5    11    10    1
     6    11    12    1
     7     2     3    1
     8     2     1    1
     9     6     7    1
    10     3     4    2
    11     8     7    2
    12    12    13    2
    13     7     9   am
    14    15    16   ar
    15    15    17   ar
    16    16    18   ar
    17    17    19   ar
    18    20    21    1
    19    22    21    1
    20    22    23    2
    21    21    24    1
    22    18    19   ar
    23    33    32    2
    24    24    25    1
    25    26    25   ar
    26    26    28   ar
    27    51    52    1
    28    51    48    1
    29    54    52   ar
    30    54    56   ar
    31    25    27   ar
    32    28    29   ar
    33    52    53   ar
    34    97    95    1
    35    56    57   ar
    36    96    95    1
    37   101   100    2
    38    27    29   ar
    39    95    92    1
    40    47    48    1
    41    43    42    2
    42    46    44    1
    43    30    31    1
    44    32    31    1
    45    53    55   ar
    46    58    59    1
    47    58    49   am
    48    57    55   ar
    49    44    45    1
    50    44    41    1
    51    40    41    1
    52    48    49    1
    53   102   103    1
    54   102    99    1
    55    59    60    1
    56   104   103    1
    57   104    98    1
    58   111   105    1
    59   111   110    1
    60   100    99    1
    61   100   105   am
    62    31    34    1
    63    49    50    2
    64    34    35    1
    65    41    42    1
    66    98    99    1
    67    98    93   am
    68   105   106    1
    69    92    93    1
    70    92    91    1
    71   110   109    1
    72    36    35   ar
    73    36    38   ar
    74    93    94    2
    75    35    37   ar
    76    60    61    2
    77   109   106    1
    78   106   107    1
    79    91    86   am
    80    38    39   ar
    81    37    39   ar
    82    68    66    1
    83    89    88    1
    84    82    81    1
    85    87    86    2
    86    86    85    1
    87    67    66    1
    88    83    81    1
    89    74    73    1
    90   107   108    2
    91    66    63    1
    92    81    80    1
    93    80    77    1
    94   118   117    1
    95    88    85    1
    96    88    90    1
    97    84    85    1
    98    84    78   am
    99    75    73    1
   100    62    63    1
   101    73    70    1
   102   117   119    1
   103   117   116    1
   104    63    64    1
   105    77    78    1
   106    77    76    1
   107    78    79    2
   108    70    71    1
   109    70    69    1
   110   140   139   ar
   111   140   138   ar
   112    71    72    2
   113    64    65    2
   114   139   137   ar
   115   112   113    1
   116   116   113    1
   117   138   136   ar
   118   113   114    1
   119   126   124    1
   120   137   134   ar
   121   136   134   ar
   122   136   135   ar
   123   115   114    2
   124   125   124    1
   125   134   132   ar
   126   124   121    1
   127   135   133   ar
   128   121   120    1
   129   121   122    1
   130   132   133   ar
   131   132   131    1
   132   128   131    1
   133   128   129    1
   134   128   127    1
   135   122   123    2
   136   129   130    2
