@<TRIPOS>MOLECULE
tmp/2no0A01.pdb
 184 173 0 0 0
SMALL
GASTEIGER

@<TRIPOS>ATOM
      1  N         50.2260   58.7170  104.2800 N.3    12  ILE12      -0.1245
      2  CA        50.6840   58.6540  102.8850 C.3    12  ILE12       0.1561
      3  C         51.3730   57.3040  102.5960 C.2    12  ILE12       0.2260
      4  O         52.3310   56.9540  103.2720 O.2    12  ILE12      -0.2867
      5  CB        51.6920   59.8030  102.5860 C.3    12  ILE12       0.0252
      6  CG1       51.0780   61.1810  102.9350 C.3    12  ILE12       0.0019
      7  CG2       52.1540   59.7820  101.0680 C.3    12  ILE12       0.0019
      8  CD1       52.1480   62.3080  102.8480 C.3    12  ILE12       0.0001
      9  N         46.2210   52.2240  101.2080 N.3    16  LYS16      -0.1245
     10  CA        44.7650   52.3480  101.1550 C.3    16  LYS16       0.1561
     11  C         44.2210   52.0090   99.7660 C.2    16  LYS16       0.2260
     12  O         43.2370   51.2770   99.6460 O.2    16  LYS16      -0.2867
     13  CB        44.3590   53.7790  101.5080 C.3    16  LYS16       0.0271
     14  CG        44.8770   54.2060  102.9180 C.3    16  LYS16       0.0035
     15  CD        44.3780   55.6510  103.2760 C.3    16  LYS16       0.0206
     16  CE        45.0200   56.7010  102.4310 C.3    16  LYS16       0.1093
     17  NZ        46.5050   56.6450  102.4420 N.3    16  LYS16      -0.1314
     18  N         40.7460   58.7300   95.7360 N.3    35  GLU35      -0.1245
     19  CA        41.1830   60.1160   95.9390 C.3    35  GLU35       0.1567
     20  C         41.6300   60.7340   94.5840 C.2    35  GLU35       0.2260
     21  O         42.3090   60.0710   93.7950 O.2    35  GLU35      -0.2867
     22  CB        42.3090   60.1020   96.9540 C.3    35  GLU35       0.0388
     23  CG        42.7630   61.4200   97.4140 C.3    35  GLU35       0.1160
     24  CD        43.8190   61.2550   98.5130 C.2    35  GLU35       0.3649
     25  OE1       43.6330   61.8030   99.5990 O.co2  35  GLU35      -0.2457
     26  OE2       44.7930   60.5420   98.2570 O.co2  35  GLU35      -0.2457
     27  N         43.9050   62.2190   93.1190 N.3    37  VAL37      -0.1245
     28  CA        45.2930   62.6290   93.0840 C.3    37  VAL37       0.1561
     29  C         45.7340   62.9650   91.6530 C.2    37  VAL37       0.2260
     30  O         46.4590   63.9310   91.4620 O.2    37  VAL37      -0.2867
     31  CB        46.2420   61.6230   93.8150 C.3    37  VAL37       0.0252
     32  CG1       46.2760   60.3330   93.1020 C.3    37  VAL37       0.0019
     33  CG2       47.6960   62.2430   93.9320 C.3    37  VAL37       0.0019
     34  N         45.1270   66.4080   90.7790 N.3    40  TRP40      -0.1241
     35  CA        46.0210   67.3640   91.4240 C.3    40  TRP40       0.1605
     36  C         47.3950   67.4750   90.7750 C.2    40  TRP40       0.2264
     37  O         48.0030   68.5250   90.8090 O.2    40  TRP40      -0.2867
     38  CB        46.1730   67.0190   92.9160 C.3    40  TRP40       0.0550
     39  CG        44.8770   66.7610   93.6580 C.ar   40  TRP40       0.0003
     40  CD1       43.6430   67.2600   93.3540 C.ar   40  TRP40       0.0946
     41  CD2       44.7100   65.9700   94.8500 C.ar   40  TRP40       0.0152
     42  NE1       42.7110   66.8390   94.2870 N.ar   40  TRP40      -0.2442
     43  CE2       43.3360   66.0410   95.2100 C.ar   40  TRP40       0.0810
     44  CE3       45.5920   65.2100   95.6580 C.ar   40  TRP40       0.0012
     45  CZ2       42.8070   65.3800   96.3450 C.ar   40  TRP40       0.0191
     46  CZ3       45.0570   64.5520   96.7910 C.ar   40  TRP40       0.0001
     47  CH2       43.6820   64.6390   97.1120 C.ar   40  TRP40       0.0015
     48  N         50.0220   69.5130   93.3350 N.3    64  LEU64      -0.1245
     49  CA        50.6050   68.6410   94.3660 C.3    64  LEU64       0.1561
     50  C         52.1110   68.9290   94.5140 C.2    64  LEU64       0.2260
     51  O         52.6150   69.1440   95.6130 O.2    64  LEU64      -0.2867
     52  CB        50.3260   67.1630   93.9960 C.3    64  LEU64       0.0270
     53  CG        50.7990   66.1020   94.9920 C.3    64  LEU64       0.0019
     54  CD1       50.0360   66.2400   96.2730 C.3    64  LEU64       0.0001
     55  CD2       50.6800   64.6890   94.3890 C.3    64  LEU64       0.0001
     56  N         52.7340   72.3830   96.0880 N.3    67  MET67      -0.1230
     57  CA        52.6180   72.3380   97.5370 C.3    67  MET67       0.1702
     58  C         53.8900   71.7530   98.2060 C.2    67  MET67       0.2592
     59  O         54.3660   72.2900   99.2160 O.2    67  MET67      -0.2718
     60  CB        51.3980   71.5380   97.9620 C.3    67  MET67       0.0401
     61  CG        51.2390   71.5700   99.4630 C.3    67  MET67       0.0596
     62  SD        50.0530   70.4800  100.1400 S.3    67  MET67      -0.1393
     63  CE        50.5590   68.8740   99.4350 C.3    67  MET67       0.0692
     64  N         54.4150   70.6650   97.6590 N.am   68  TYR68      -0.1976
     65  CA        55.5940   70.0530   98.2620 C.3    68  TYR68       0.1639
     66  C         56.8400   70.9410   98.0990 C.2    68  TYR68       0.2290
     67  O         57.6860   71.0140   99.0290 O.2    68  TYR68      -0.2864
     68  CB        55.8200   68.6300   97.7180 C.3    68  TYR68       0.0560
     69  CG        54.9180   67.5990   98.3760 C.ar   68  TYR68      -0.0198
     70  CD1       54.1240   66.7320   97.6180 C.ar   68  TYR68      -0.0009
     71  CD2       54.8780   67.4600   99.7610 C.ar   68  TYR68      -0.0009
     72  CE1       53.2780   65.7900   98.2480 C.ar   68  TYR68       0.0417
     73  CE2       54.0650   66.5260  100.3820 C.ar   68  TYR68       0.0417
     74  CZ        53.2770   65.6760   99.6290 C.ar   68  TYR68       0.1957
     75  OH        52.4640   64.7750  100.2820 O.3    68  TYR68      -0.2866
     76  N         46.3300   74.3290   97.3380 N.3    78  PHE78      -0.1227
     77  CA        46.2620   72.8700   97.2320 C.3    78  PHE78       0.1736
     78  C         45.1430   72.2830   98.0690 C.2    78  PHE78       0.2595
     79  O         44.3420   71.4800   97.5510 O.2    78  PHE78      -0.2718
     80  CB        47.6050   72.1510   97.5520 C.3    78  PHE78       0.0547
     81  CG        47.4480   70.6470   97.5410 C.ar   78  PHE78      -0.0202
     82  CD1       47.5600   69.9390   96.3540 C.ar   78  PHE78      -0.0042
     83  CD2       47.0470   69.9750   98.6940 C.ar   78  PHE78      -0.0042
     84  CE1       47.3320   68.5240   96.3470 C.ar   78  PHE78      -0.0003
     85  CE2       46.7970   68.6050   98.6980 C.ar   78  PHE78      -0.0003
     86  CZ        46.9440   67.8850   97.5290 C.ar   78  PHE78      -0.0000
     87  N         45.0760   72.6460   99.3540 N.am   79  GLN79      -0.1979
     88  CA        44.0970   72.0230  100.2410 C.3    79  GLN79       0.1601
     89  C         42.6470   72.3460   99.8200 C.2    79  GLN79       0.2287
     90  O         41.7600   71.4930   99.8890 O.2    79  GLN79      -0.2864
     91  CB        44.3450   72.4120  101.7180 C.3    79  GLN79       0.0394
     92  CG        45.5920   71.7610  102.3610 C.3    79  GLN79       0.0908
     93  CD        45.5290   70.2170  102.3530 C.2    79  GLN79       0.2608
     94  OE1       44.4690   69.6270  102.5800 O.2    79  GLN79      -0.2717
     95  NE2       46.6660   69.5760  102.1150 N.am   79  GLN79      -0.0878
     96  N         41.9070   70.2560   96.7930 N.3    82  ALA82      -0.1245
     97  CA        41.8940   68.8350   97.1350 C.3    82  ALA82       0.1562
     98  C         40.4800   68.4930   97.6250 C.2    82  ALA82       0.2260
     99  O         39.8530   67.5160   97.2080 O.2    82  ALA82      -0.2867
    100  CB        42.9040   68.5440   98.2500 C.3    82  ALA82       0.0290
    101  N         37.4240   66.3540   95.8290 N.3    86  ARG86      -0.1245
    102  CA        36.9700   65.1660   96.5340 C.3    86  ARG86       0.1563
    103  C         35.4640   65.1460   96.6620 C.2    86  ARG86       0.2260
    104  O         34.8440   64.1370   96.3430 O.2    86  ARG86      -0.2867
    105  CB        37.5740   65.0980   97.9390 C.3    86  ARG86       0.0307
    106  CG        37.1270   63.8600   98.6810 C.3    86  ARG86       0.0489
    107  CD        37.6000   63.8500  100.1180 C.3    86  ARG86       0.2205
    108  NE        39.0420   63.9920  100.2700 N.pl3  86  ARG86      -0.0865
    109  CZ        39.9940   63.1170   99.9220 C.cat  86  ARG86       0.5346
    110  NH1       39.7490   61.9520   99.3170 N.pl3  86  ARG86       0.1354
    111  NH2       41.2440   63.4280  100.1880 N.pl3  86  ARG86       0.1354
    112  N         39.9190   58.2300  101.8320 N.3   110  ARG110     -0.1245
    113  CA        40.0030   59.4500  102.6310 C.3   110  ARG110      0.1563
    114  C         38.6950   60.2460  102.5800 C.2   110  ARG110      0.2260
    115  O         37.7780   59.9380  101.8060 O.2   110  ARG110     -0.2867
    116  CB        41.2160   60.3200  102.2360 C.3   110  ARG110      0.0307
    117  CG        42.5450   59.7330  102.6850 C.3   110  ARG110      0.0489
    118  CD        43.5000   60.8320  103.0910 C.3   110  ARG110      0.2205
    119  NE        44.8100   60.2710  103.3570 N.pl3 110  ARG110     -0.0865
    120  CZ        45.8350   60.3360  102.5220 C.cat 110  ARG110      0.5346
    121  NH1       45.6980   60.9260  101.3350 N.pl3 110  ARG110      0.1354
    122  NH2       47.0030   59.7890  102.8690 N.pl3 110  ARG110      0.1354
    123  N         40.9780   65.6510  105.2190 N.3   115  ASP115     -0.1239
    124  CA        41.5070   66.8250  104.5230 C.3   115  ASP115      0.1674
    125  C         41.7310   67.9950  105.4990 C.2   115  ASP115      0.2266
    126  O         42.7970   68.6330  105.4670 O.2   115  ASP115     -0.2867
    127  CB        40.5210   67.2810  103.4150 C.3   115  ASP115      0.1410
    128  CG        40.5250   66.3750  102.1950 C.2   115  ASP115      0.3668
    129  OD1       41.5190   65.6540  101.9400 O.co2 115  ASP115     -0.2456
    130  OD2       39.5160   66.4140  101.4340 O.co2 115  ASP115     -0.2456
    131  N         45.4120   66.9070  107.2830 N.3   119  PHE119     -0.1241
    132  CA        46.3330   67.5160  106.3640 C.3   119  PHE119      0.1605
    133  C         46.3980   69.0200  106.4900 C.2   119  PHE119      0.2264
    134  O         47.4990   69.5790  106.6830 O.2   119  PHE119     -0.2867
    135  CB        46.0300   67.0660  104.9250 C.3   119  PHE119      0.0534
    136  CG        46.4320   65.6410  104.6860 C.ar  119  PHE119     -0.0203
    137  CD1       45.5500   64.6040  104.9480 C.ar  119  PHE119     -0.0042
    138  CD2       47.7380   65.3480  104.3030 C.ar  119  PHE119     -0.0042
    139  CE1       45.9470   63.2300  104.7940 C.ar  119  PHE119     -0.0003
    140  CE2       48.1460   64.0160  104.1140 C.ar  119  PHE119     -0.0003
    141  CZ        47.2740   62.9630  104.3550 C.ar  119  PHE119     -0.0000
    142  N         56.3880   53.2480   95.6290 N.3   174  ARG174     -0.1245
    143  CA        55.4170   53.7530   94.6700 C.3   174  ARG174      0.1563
    144  C         56.0660   54.6680   93.6380 C.2   174  ARG174      0.2260
    145  O         55.6450   54.6840   92.4680 O.2   174  ARG174     -0.2867
    146  CB        54.2910   54.4920   95.3890 C.3   174  ARG174      0.0307
    147  CG        53.3280   55.1840   94.4350 C.3   174  ARG174      0.0489
    148  CD        52.0630   55.5490   95.1920 C.3   174  ARG174      0.2205
    149  NE        52.3430   56.5970   96.1840 N.pl3 174  ARG174     -0.0865
    150  CZ        51.5590   56.8880   97.2210 C.cat 174  ARG174      0.5346
    151  NH1       50.4380   56.1950   97.4480 N.pl3 174  ARG174      0.1354
    152  NH2       51.9090   57.8820   98.0400 N.pl3 174  ARG174      0.1354
    153  N         56.1280   58.1170   93.3100 N.3   176  ARG176     -0.1245
    154  CA        55.5470   59.3900   92.8480 C.3   176  ARG176      0.1563
    155  C         56.6010   60.4870   93.0020 C.2   176  ARG176      0.2260
    156  O         57.1030   60.7420   94.1060 O.2   176  ARG176     -0.2867
    157  CB        54.2240   59.7010   93.5830 C.3   176  ARG176      0.0307
    158  CG        53.5490   61.0260   93.1580 C.3   176  ARG176      0.0489
    159  CD        52.1940   61.1670   93.8840 C.3   176  ARG176      0.2205
    160  NE        51.2660   60.1060   93.4960 N.pl3 176  ARG176     -0.0865
    161  CZ        50.4660   59.3950   94.3070 C.cat 176  ARG176      0.5346
    162  NH1       50.4290   59.5730   95.6360 N.pl3 176  ARG176      0.1354
    163  NH2       49.6840   58.4740   93.7600 N.pl3 176  ARG176      0.1354
    164  N         56.6370   63.2390   95.7810 N.3   179  GLU179     -0.1245
    165  CA        56.6510   62.7720   97.1810 C.3   179  GLU179      0.1567
    166  C         58.0450   62.3360   97.6180 C.2   179  GLU179      0.2260
    167  O         58.2790   62.0150   98.7830 O.2   179  GLU179     -0.2867
    168  CB        55.6750   61.5910   97.3400 C.3   179  GLU179      0.0388
    169  CG        54.2390   62.0060   97.2280 C.3   179  GLU179      0.1160
    170  CD        53.2960   60.8310   97.2950 C.2   179  GLU179      0.3649
    171  OE1       53.7770   59.6620   97.2270 O.co2 179  GLU179     -0.2457
    172  OE2       52.0710   61.0610   97.4310 O.co2 179  GLU179     -0.2457
    173  N         57.8000   64.6450  108.6860 N.3   186  TYR186     -0.1241
    174  CA        56.5060   65.0800  108.1230 C.3   186  TYR186      0.1605
    175  C         55.5000   63.9470  108.2550 C.2   186  TYR186      0.2264
    176  O         54.3440   64.1640  108.6710 O.2   186  TYR186     -0.2867
    177  CB        56.6680   65.4340  106.6300 C.3   186  TYR186      0.0534
    178  CG        55.4040   65.9910  106.0180 C.ar  186  TYR186     -0.0201
    179  CD1       54.9310   67.2670  106.3690 C.ar  186  TYR186     -0.0009
    180  CD2       54.6520   65.2410  105.0970 C.ar  186  TYR186     -0.0009
    181  CE1       53.7360   67.7810  105.7920 C.ar  186  TYR186      0.0417
    182  CE2       53.4810   65.7330  104.5350 C.ar  186  TYR186      0.0417
    183  CZ        53.0280   67.0010  104.8590 C.ar  186  TYR186      0.1957
    184  OH        51.8490   67.4870  104.2840 O.3   186  TYR186     -0.2866
@<TRIPOS>BOND
     1    36    37    2
     2    36    35    1
     3    34    35    1
     4    35    38    1
     5    30    29    2
     6    29    28    1
     7   145   144    2
     8   154   155    1
     9   154   153    1
    10   154   157    1
    11    38    39    1
    12   155   156    2
    13    28    27    1
    14    28    31    1
    15    32    31    1
    16   158   157    1
    17   158   159    1
    18    48    49    1
    19    40    39   ar
    20    40    42   ar
    21   160   159    1
    22   160   161    2
    23   144   143    1
    24    39    41   ar
    25   163   161    1
    26    21    20    2
    27    31    33    1
    28    52    49    1
    29    52    53    1
    30    42    43   ar
    31   161   162    1
    32    49    50    1
    33    55    53    1
    34   147   148    1
    35   147   146    1
    36    50    51    2
    37    20    19    1
    38   143   146    1
    39   143   142    1
    40    41    43   ar
    41    41    44   ar
    42    53    54    1
    43   148   149    1
    44    43    45   ar
    45    44    46   ar
    46    18    19    1
    47   164   165    1
    48   101   102    1
    49    19    22    1
    50    56    57    1
    51   149   150    2
    52   104   103    2
    53    45    47   ar
    54    84    82   ar
    55    84    86   ar
    56    82    81   ar
    57   102   103    1
    58   102   105    1
    59    46    47   ar
    60    96    97    1
    61    22    23    1
    62    97    98    1
    63    97   100    1
    64   165   168    1
    65   165   166    1
    66    99    98    2
    67   150   151    1
    68   150   152    1
    69   171   170   ar
    70   169   170    1
    71   169   168    1
    72    77    76    1
    73    77    80    1
    74    77    78    1
    75   170   172   ar
    76    23    24    1
    77    86    85   ar
    78    57    60    1
    79    57    58    1
    80    81    80    1
    81    81    83   ar
    82    79    78    2
    83    70    72   ar
    84    70    69   ar
    85   166   167    2
    86    64    58   am
    87    64    65    1
    88    68    65    1
    89    68    69    1
    90   105   106    1
    91    60    61    1
    92    78    87   am
    93    66    65    1
    94    66    67    2
    95    58    59    2
    96    72    74   ar
    97    26    24   ar
    98    69    71   ar
    99    24    25   ar
   100   106   107    1
   101    83    85   ar
   102   110   109    1
   103    87    88    1
   104    63    62    1
   105    61    62    1
   106    74    75    1
   107    74    73   ar
   108    12    11    2
   109    71    73   ar
   110    11    10    1
   111    89    90    2
   112    89    88    1
   113   109   111    1
   114   109   108    2
   115   107   108    1
   116    88    91    1
   117     7     5    1
   118    10     9    1
   119    10    13    1
   120   121   120    1
   121   130   128   ar
   122    13    14    1
   123    91    92    1
   124   115   114    2
   125   112   113    1
   126   129   128   ar
   127    95    93   am
   128   128   127    1
   129   116   113    1
   130   116   117    1
   131    93    92    1
   132    93    94    2
   133    16    17    1
   134    16    15    1
   135   120   122    1
   136   120   119    2
   137   114   113    1
   138     5     2    1
   139     5     6    1
   140     3     2    1
   141     3     4    2
   142   117   118    1
   143     8     6    1
   144     2     1    1
   145    14    15    1
   146   118   119    1
   147   127   124    1
   148   140   138   ar
   149   140   141   ar
   150   184   183    1
   151   138   136   ar
   152   141   139   ar
   153   124   123    1
   154   124   125    1
   155   182   183   ar
   156   182   180   ar
   157   136   135    1
   158   136   137   ar
   159   139   137   ar
   160   183   181   ar
   161   135   132    1
   162   180   178   ar
   163   126   125    2
   164   181   179   ar
   165   178   179   ar
   166   178   177    1
   167   132   133    1
   168   132   131    1
   169   133   134    2
   170   177   174    1
   171   174   175    1
   172   174   173    1
   173   175   176    2
