@<TRIPOS>MOLECULE
tmp/2no3C01.pdb
 151 141 0 0 0
SMALL
GASTEIGER

@<TRIPOS>ATOM
      1  N         51.9480   53.7260   30.5220 N.3    26  ILE26      -0.1231
      2  CA        53.2370   54.2730   30.9000 C.3    26  ILE26       0.1692
      3  C         52.9800   55.6170   31.5820 C.2    26  ILE26       0.2593
      4  O         53.8880   56.2460   32.1340 O.2    26  ILE26      -0.2718
      5  CB        54.0920   54.4600   29.6560 C.3    26  ILE26       0.0266
      6  CG1       54.7120   55.8460   29.6440 C.3    26  ILE26       0.0019
      7  CG2       53.2330   54.2800   28.4250 C.3    26  ILE26       0.0020
      8  CD1       55.0580   56.3260   28.2630 C.3    26  ILE26       0.0001
      9  N         51.7160   56.0320   31.5540 N.am   27  GLY27      -0.1942
     10  CA        51.3200   57.2840   32.1680 C.3    27  GLY27       0.2014
     11  C         49.8900   57.6710   31.8360 C.2    27  GLY27       0.2640
     12  O         49.2980   57.1530   30.8870 O.2    27  GLY27      -0.2714
     13  N         49.3290   58.5860   32.6210 N.am   28  SER28      -0.1935
     14  CA        47.9650   59.0460   32.3980 C.3    28  SER28       0.2055
     15  C         47.6030   60.1620   33.3660 C.2    28  SER28       0.2643
     16  O         46.6740   60.0210   34.1620 O.2    28  SER28      -0.2714
     17  CB        46.9790   57.8900   32.5710 C.3    28  SER28       0.2130
     18  OG        46.9810   57.4190   33.9030 O.3    28  SER28      -0.2179
     19  N         48.3370   61.2690   33.2900 N.am   29  GLY29      -0.1954
     20  CA        48.0830   62.3980   34.1690 C.3    29  GLY29       0.1869
     21  C         46.6180   62.7810   34.2690 C.2    29  GLY29       0.2309
     22  O         45.8800   62.2350   35.0930 O.2    29  GLY29      -0.2863
     23  N         45.1270   64.9810   31.1790 N.3    31  GLN31      -0.1245
     24  CA        44.7230   65.2690   29.8090 C.3    31  GLN31       0.1566
     25  C         44.6160   63.9780   29.0110 C.2    31  GLN31       0.2260
     26  O         45.0090   63.9290   27.8500 O.2    31  GLN31      -0.2867
     27  CB        45.7220   66.2050   29.1230 C.3    31  GLN31       0.0367
     28  CG        45.1570   66.8720   27.8690 C.3    31  GLN31       0.0905
     29  CD        46.2300   67.4290   26.9540 C.2    31  GLN31       0.2608
     30  OE1       47.1050   68.1770   27.3870 O.2    31  GLN31      -0.2717
     31  NE2       46.1630   67.0700   25.6760 N.am   31  GLN31      -0.0878
     32  N         48.5480   58.0620   28.1520 N.3    34  VAL34      -0.1245
     33  CA        49.6570   57.8950   27.2220 C.3    34  VAL34       0.1561
     34  C         50.2630   56.5000   27.2230 C.2    34  VAL34       0.2260
     35  O         50.5300   55.9320   28.2820 O.2    34  VAL34      -0.2867
     36  CB        50.7810   58.8770   27.5590 C.3    34  VAL34       0.0252
     37  CG1       51.9940   58.5900   26.6980 C.3    34  VAL34       0.0019
     38  CG2       50.2980   60.2900   27.3630 C.3    34  VAL34       0.0019
     39  N         55.2790   57.2290   21.5830 N.3    47  ALA47      -0.1245
     40  CA        54.3560   57.5870   22.6470 C.3    47  ALA47       0.1562
     41  C         53.0210   57.9230   22.0000 C.2    47  ALA47       0.2260
     42  O         52.9690   58.6320   20.9940 O.2    47  ALA47      -0.2867
     43  CB        54.8880   58.7910   23.4100 C.3    47  ALA47       0.0290
     44  N         49.0840   59.3230   22.9060 N.3    49  LYS49      -0.1245
     45  CA        48.2160   59.9240   23.9090 C.3    49  LYS49       0.1561
     46  C         46.7590   59.9190   23.4590 C.2    49  LYS49       0.2260
     47  O         46.4610   60.1940   22.3000 O.2    49  LYS49      -0.2867
     48  CB        48.6700   61.3500   24.2070 C.3    49  LYS49       0.0271
     49  CG        47.8860   61.9870   25.3310 C.3    49  LYS49       0.0035
     50  CD        48.6470   63.1370   25.9910 C.3    49  LYS49       0.0206
     51  CE        48.8220   64.3500   25.0900 C.3    49  LYS49       0.1093
     52  NZ        49.3830   65.4740   25.8890 N.3    49  LYS49      -0.1314
     53  N         59.3300   68.0160   22.9480 N.3    80  ILE80      -0.1245
     54  CA        58.7900   66.7370   22.4860 C.3    80  ILE80       0.1561
     55  C         58.4160   66.8600   21.0040 C.2    80  ILE80       0.2260
     56  O         57.6990   67.7870   20.5980 O.2    80  ILE80      -0.2867
     57  CB        57.5530   66.3070   23.3270 C.3    80  ILE80       0.0252
     58  CG1       57.2420   64.8390   23.0820 C.3    80  ILE80       0.0019
     59  CG2       56.3430   67.1320   22.9660 C.3    80  ILE80       0.0019
     60  CD1       58.3510   63.9480   23.5150 C.3    80  ILE80       0.0001
     61  N         54.0190   60.7260   19.8410 N.3   102  MET102     -0.1230
     62  CA        55.3090   61.3780   20.0230 C.3   102  MET102      0.1702
     63  C         56.4690   60.3960   20.0220 C.2   102  MET102      0.2592
     64  O         56.2670   59.1920   20.1720 O.2   102  MET102     -0.2718
     65  CB        55.3100   62.1110   21.3560 C.3   102  MET102      0.0401
     66  CG        54.0070   62.7940   21.6730 C.3   102  MET102      0.0596
     67  SD        54.0180   63.3440   23.3580 S.3   102  MET102     -0.1393
     68  CE        52.5320   62.5780   23.9710 C.3   102  MET102      0.0692
     69  N         57.6810   60.9190   19.8500 N.am  103  GLU103     -0.1966
     70  CA        58.8620   60.0740   19.8780 C.3   103  GLU103      0.1733
     71  C         58.9790   59.6690   21.3410 C.2   103  GLU103      0.2616
     72  O         58.8430   60.5020   22.2280 O.2   103  GLU103     -0.2715
     73  CB        60.1070   60.8440   19.4200 C.3   103  GLU103      0.0429
     74  CG        60.4030   62.1150   20.1890 C.3   103  GLU103      0.1163
     75  CD        61.7100   62.7690   19.7600 C.2   103  GLU103      0.3649
     76  OE1       62.7660   62.1090   19.8550 O.co2 103  GLU103     -0.2457
     77  OE2       61.6870   63.9420   19.3320 O.co2 103  GLU103     -0.2457
     78  N         59.2150   58.3910   21.6010 N.am  104  LEU104     -0.1963
     79  CA        59.2880   57.9300   22.9740 C.3   104  LEU104      0.1728
     80  C         60.5940   58.1670   23.7120 C.2   104  LEU104      0.2616
     81  O         61.6580   57.7750   23.2460 O.2   104  LEU104     -0.2715
     82  CB        58.9740   56.4440   23.0510 C.3   104  LEU104      0.0311
     83  CG        59.1250   56.0250   24.5130 C.3   104  LEU104      0.0022
     84  CD1       58.0480   56.7120   25.3100 C.3   104  LEU104      0.0001
     85  CD2       59.0190   54.5290   24.6790 C.3   104  LEU104      0.0001
     86  N         60.5050   58.8070   24.8720 N.am  105  MET105     -0.1963
     87  CA        61.6760   59.0420   25.7080 C.3   105  MET105      0.1736
     88  C         61.5990   57.9700   26.7800 C.2   105  MET105      0.2616
     89  O         60.6310   57.2230   26.8250 O.2   105  MET105     -0.2715
     90  CB        61.6270   60.4210   26.3500 C.3   105  MET105      0.0427
     91  CG        61.7500   61.5620   25.3760 C.3   105  MET105      0.0599
     92  SD        63.4270   61.8020   24.7640 S.3   105  MET105     -0.1393
     93  CE        64.2240   62.4880   26.2380 C.3   105  MET105      0.0692
     94  N         62.5940   57.9060   27.6570 N.am  106  ASP106     -0.1957
     95  CA        62.6310   56.8660   28.6870 C.3   106  ASP106      0.1840
     96  C         61.8820   57.0950   30.0000 C.2   106  ASP106      0.2622
     97  O         61.2630   56.1660   30.5100 O.2   106  ASP106     -0.2715
     98  CB        64.0920   56.4960   28.9870 C.3   106  ASP106      0.1450
     99  CG        64.7610   55.7470   27.8290 C.2   106  ASP106      0.3671
    100  OD1       64.2080   54.7050   27.3910 O.co2 106  ASP106     -0.2456
    101  OD2       65.8410   56.1980   27.3690 O.co2 106  ASP106     -0.2456
    102  N         61.9360   58.3040   30.5590 N.am  107  ALA107     -0.1963
    103  CA        61.2340   58.5660   31.8190 C.3   107  ALA107      0.1728
    104  C         61.0900   60.0300   32.2440 C.2   107  ALA107      0.2616
    105  O         61.7170   60.9230   31.6730 O.2   107  ALA107     -0.2715
    106  CB        61.9000   57.7790   32.9370 C.3   107  ALA107      0.0334
    107  N         60.2400   60.2460   33.2520 N.am  108  ASN108     -0.1972
    108  CA        59.9740   61.5610   33.8510 C.3   108  ASN108      0.1688
    109  C         61.2610   62.2210   34.2990 C.2   108  ASN108      0.2292
    110  O         62.3510   61.6680   34.1690 O.2   108  ASN108     -0.2864
    111  CB        59.1850   61.4240   35.1450 C.3   108  ASN108      0.1181
    112  CG        57.7540   61.1330   34.9300 C.2   108  ASN108      0.2629
    113  OD1       57.0480   60.7770   35.8760 O.2   108  ASN108     -0.2716
    114  ND2       57.2870   61.2920   33.6950 N.am  108  ASN108     -0.0877
    115  N         56.5970   65.9500   36.3050 N.3   149  SER149     -0.1202
    116  CA        55.5720   65.2280   35.5490 C.3   149  SER149      0.2020
    117  C         55.6480   65.4900   34.0460 C.2   149  SER149      0.2618
    118  O         55.4740   64.5640   33.2440 O.2   149  SER149     -0.2717
    119  CB        54.1630   65.6250   36.0200 C.3   149  SER149      0.2103
    120  OG        54.0410   65.6720   37.4330 O.3   149  SER149     -0.2182
    121  N         55.9030   66.7510   33.6760 N.am  150  ASN150     -0.1974
    122  CA        55.9560   67.1670   32.2750 C.3   150  ASN150      0.1688
    123  C         57.2900   67.1010   31.5730 C.2   150  ASN150      0.2292
    124  O         57.4100   67.5670   30.4360 O.2   150  ASN150     -0.2864
    125  CB        55.4280   68.5900   32.1080 C.3   150  ASN150      0.1181
    126  CG        53.9370   68.6760   32.2520 C.2   150  ASN150      0.2629
    127  OD1       53.2090   67.8010   31.7880 O.2   150  ASN150     -0.2716
    128  ND2       53.4640   69.7430   32.8790 N.am  150  ASN150     -0.0877
    129  N         60.5210   64.7380   30.1680 N.3   152  VAL152     -0.1245
    130  CA        61.0340   63.4210   29.8520 C.3   152  VAL152      0.1561
    131  C         62.5360   63.4680   29.6260 C.2   152  VAL152      0.2260
    132  O         63.0790   64.5080   29.2580 O.2   152  VAL152     -0.2867
    133  CB        60.3860   62.8830   28.5770 C.3   152  VAL152      0.0252
    134  CG1       58.8970   62.6880   28.7910 C.3   152  VAL152      0.0019
    135  CG2       60.6390   63.8510   27.4340 C.3   152  VAL152      0.0019
    136  N         57.1320   68.7240   27.3430 N.3   162  LEU162     -0.1231
    137  CA        55.9440   68.2920   26.6190 C.3   162  LEU162      0.1693
    138  C         54.6650   68.7560   27.3000 C.2   162  LEU162      0.2592
    139  O         54.7120   69.3630   28.3740 O.2   162  LEU162     -0.2718
    140  CB        55.9360   66.7790   26.4320 C.3   162  LEU162      0.0284
    141  CG        56.3960   65.9670   27.6280 C.3   162  LEU162      0.0019
    142  CD1       55.5000   66.2370   28.8040 C.3   162  LEU162      0.0001
    143  CD2       56.3710   64.5100   27.2680 C.3   162  LEU162      0.0001
    144  N         53.5260   68.4590   26.6740 N.am  163  ASP163     -0.1974
    145  CA        52.2240   68.8880   27.1790 C.3   163  ASP163      0.1709
    146  C         52.1670   70.4040   26.9920 C.2   163  ASP163      0.2293
    147  O         52.9310   71.1420   27.6050 O.2   163  ASP163     -0.2864
    148  CB        52.0640   68.5400   28.6560 C.3   163  ASP163      0.1436
    149  CG        50.6680   68.8190   29.1650 C.2   163  ASP163      0.3671
    150  OD1       50.2510   69.9980   29.1640 O.co2 163  ASP163     -0.2456
    151  OD2       49.9840   67.8530   29.5610 O.co2 163  ASP163     -0.2456
@<TRIPOS>BOND
     1    77    75   ar
     2    73    70    1
     3    73    74    1
     4    75    76   ar
     5    75    74    1
     6    61    62    1
     7    69    70    1
     8    69    63   am
     9    70    71    1
    10    63    62    1
    11    63    64    2
    12    62    65    1
    13    56    55    2
    14    42    41    2
    15    55    54    1
    16    71    78   am
    17    71    72    2
    18    65    66    1
    19    39    40    1
    20    78    79    1
    21    66    67    1
    22    41    40    1
    23    47    46    2
    24    54    53    1
    25    54    57    1
    26    40    43    1
    27    44    45    1
    28    59    57    1
    29    79    82    1
    30    79    80    1
    31    82    83    1
    32    58    57    1
    33    58    60    1
    34    81    80    2
    35    67    68    1
    36    46    45    1
    37    80    86   am
    38    45    48    1
    39    48    49    1
    40    83    85    1
    41    83    84    1
    42    92    91    1
    43    92    93    1
    44    86    87    1
    45    51    52    1
    46    51    50    1
    47    49    50    1
    48    91    90    1
    49    31    29   am
    50    87    90    1
    51    87    88    1
    52   140   137    1
    53   140   141    1
    54   137   138    1
    55   137   136    1
    56   144   145    1
    57   144   138   am
    58    37    36    1
    59    88    89    2
    60    88    94   am
    61    29    30    2
    62    29    28    1
    63   146   145    1
    64   146   147    2
    65   145   148    1
    66    33    34    1
    67    33    36    1
    68    33    32    1
    69    34    35    2
    70   143   141    1
    71   138   139    2
    72    38    36    1
    73   101    99   ar
    74   100    99   ar
    75   135   133    1
    76   141   142    1
    77    94    95    1
    78    99    98    1
    79    26    25    2
    80    28    27    1
    81     8     6    1
    82     7     5    1
    83   133   134    1
    84   133   130    1
    85   148   149    1
    86    95    98    1
    87    95    96    1
    88    25    24    1
    89    27    24    1
    90   150   149   ar
    91   149   151   ar
    92   132   131    2
    93   131   130    1
    94     6     5    1
    95     5     2    1
    96    24    23    1
    97   130   129    1
    98    96    97    2
    99    96   102   am
   100   124   123    2
   101     1     2    1
   102   102   103    1
   103    12    11    2
   104     2     3    1
   105     9     3   am
   106     9    10    1
   107   123   122    1
   108     3     4    2
   109   105   104    2
   110   127   126    2
   111   103   104    1
   112   103   106    1
   113    11    10    1
   114    11    13   am
   115   125   126    1
   116   125   122    1
   117   104   107   am
   118   126   128   am
   119   122   121    1
   120    14    17    1
   121    14    13    1
   122    14    15    1
   123    17    18    1
   124   118   117    2
   125   107   108    1
   126    19    15   am
   127    19    20    1
   128    15    16    2
   129   121   117   am
   130   114   112   am
   131   108   109    1
   132   108   111    1
   133   117   116    1
   134   110   109    2
   135    20    21    1
   136    21    22    2
   137   112   111    1
   138   112   113    2
   139   116   119    1
   140   116   115    1
   141   119   120    1
