@<TRIPOS>MOLECULE
tmp/2no6A01.pdb
 197 185 0 0 0
SMALL
GASTEIGER

@<TRIPOS>ATOM
      1  N         50.2670   59.7510  102.3570 N.3    12  ILE12      -0.1231
      2  CA        50.6760   59.5670  100.9780 C.3    12  ILE12       0.1692
      3  C         51.3720   58.2030  100.8070 C.2    12  ILE12       0.2591
      4  O         52.2810   57.9120  101.5720 O.2    12  ILE12      -0.2718
      5  CB        51.6410   60.7410  100.5560 C.3    12  ILE12       0.0266
      6  CG1       50.9130   62.1160  100.7000 C.3    12  ILE12       0.0019
      7  CG2       52.1900   60.5310   99.1670 C.3    12  ILE12       0.0020
      8  CD1       51.7730   63.3560  100.8630 C.3    12  ILE12       0.0001
      9  N         50.9700   57.3960   99.7990 N.am   13  ALA13      -0.1980
     10  CA        51.5840   56.0930   99.4950 C.3    13  ALA13       0.1597
     11  C         51.4000   55.0380  100.6000 C.2    13  ALA13       0.2287
     12  O         52.1620   54.0740  100.6410 O.2    13  ALA13      -0.2864
     13  CB        53.0900   56.2550   99.1940 C.3    13  ALA13       0.0319
     14  N         46.3160   53.1460   99.5980 N.3    16  LYS16      -0.1245
     15  CA        44.8570   53.3000   99.6470 C.3    16  LYS16       0.1561
     16  C         44.2230   52.9410   98.3270 C.2    16  LYS16       0.2260
     17  O         43.2780   52.1500   98.2860 O.2    16  LYS16      -0.2867
     18  CB        44.4790   54.7300  100.0570 C.3    16  LYS16       0.0271
     19  CG        44.9010   55.0830  101.5140 C.3    16  LYS16       0.0035
     20  CD        44.4850   56.5220  101.8870 C.3    16  LYS16       0.0206
     21  CE        45.0620   57.6160  100.9810 C.3    16  LYS16       0.1093
     22  NZ        46.5710   57.6560  100.8450 N.3    16  LYS16      -0.1314
     23  N         40.9860   59.7280   94.2320 N.3    35  GLU35      -0.1245
     24  CA        41.3560   61.0960   94.5560 C.3    35  GLU35       0.1567
     25  C         41.8300   61.7850   93.2560 C.2    35  GLU35       0.2260
     26  O         42.5200   61.1600   92.4630 O.2    35  GLU35      -0.2867
     27  CB        42.4820   61.0660   95.5840 C.3    35  GLU35       0.0388
     28  CG        43.0020   62.4260   96.0020 C.3    35  GLU35       0.1160
     29  CD        44.0020   62.2730   97.1650 C.2    35  GLU35       0.3649
     30  OE1       43.6730   62.6730   98.3260 O.co2  35  GLU35      -0.2457
     31  OE2       45.0700   61.6920   96.8790 O.co2  35  GLU35      -0.2457
     32  N         44.1500   63.3270   91.9690 N.3    37  VAL37      -0.1245
     33  CA        45.5370   63.7800   91.9170 C.3    37  VAL37       0.1561
     34  C         46.0210   64.1360   90.4710 C.2    37  VAL37       0.2260
     35  O         46.7450   65.1190   90.2990 O.2    37  VAL37      -0.2867
     36  CB        46.5080   62.7620   92.6290 C.3    37  VAL37       0.0252
     37  CG1       46.5240   61.4270   91.8610 C.3    37  VAL37       0.0019
     38  CG2       47.9320   63.4090   92.8030 C.3    37  VAL37       0.0019
     39  N         45.4520   67.6580   89.5680 N.3    40  TRP40      -0.1241
     40  CA        46.3060   68.6350   90.2990 C.3    40  TRP40       0.1605
     41  C         47.6790   68.7920   89.6730 C.2    40  TRP40       0.2264
     42  O         48.2550   69.8620   89.7150 O.2    40  TRP40      -0.2867
     43  CB        46.4670   68.2850   91.8010 C.3    40  TRP40       0.0550
     44  CG        45.1400   67.9580   92.5480 C.ar   40  TRP40       0.0003
     45  CD1       43.8570   68.3550   92.1920 C.ar   40  TRP40       0.0946
     46  CD2       44.9940   67.1470   93.7250 C.ar   40  TRP40       0.0152
     47  NE1       42.9280   67.8250   93.0810 N.ar   40  TRP40      -0.2442
     48  CE2       43.5970   67.0920   94.0320 C.ar   40  TRP40       0.0810
     49  CE3       45.9020   66.4800   94.5680 C.ar   40  TRP40       0.0012
     50  CZ2       43.0990   66.3870   95.1360 C.ar   40  TRP40       0.0191
     51  CZ3       45.3920   65.7760   95.6730 C.ar   40  TRP40       0.0001
     52  CH2       44.0020   65.7320   95.9340 C.ar   40  TRP40       0.0015
     53  N         50.3460   70.9150   91.8080 N.3    64  LEU64      -0.1245
     54  CA        50.9250   70.0220   92.8190 C.3    64  LEU64       0.1561
     55  C         52.3930   70.3760   93.0110 C.2    64  LEU64       0.2260
     56  O         52.8660   70.6010   94.1000 O.2    64  LEU64      -0.2867
     57  CB        50.8230   68.5700   92.3500 C.3    64  LEU64       0.0270
     58  CG        51.3450   67.5100   93.3050 C.3    64  LEU64       0.0019
     59  CD1       50.7270   67.7190   94.6800 C.3    64  LEU64       0.0001
     60  CD2       50.9330   66.1370   92.7030 C.3    64  LEU64       0.0001
     61  N         53.0320   73.7640   94.6480 N.3    67  MET67      -0.1230
     62  CA        52.8840   73.7030   96.0920 C.3    67  MET67       0.1702
     63  C         54.1330   73.1070   96.7490 C.2    67  MET67       0.2592
     64  O         54.6530   73.6810   97.6860 O.2    67  MET67      -0.2718
     65  CB        51.6630   72.9340   96.5110 C.3    67  MET67       0.0401
     66  CG        51.5380   72.9020   98.0160 C.3    67  MET67       0.0596
     67  SD        51.9570   71.2860   98.7120 S.3    67  MET67      -0.1393
     68  CE        50.6820   70.2710   97.9070 C.3    67  MET67       0.0692
     69  N         54.6330   71.9890   96.2390 N.am   68  TYR68      -0.1976
     70  CA        55.8330   71.3990   96.8330 C.3    68  TYR68       0.1639
     71  C         57.0380   72.3080   96.7380 C.2    68  TYR68       0.2290
     72  O         57.8460   72.4080   97.6840 O.2    68  TYR68      -0.2864
     73  CB        56.1420   70.0710   96.1730 C.3    68  TYR68       0.0560
     74  CG        55.2580   68.9730   96.6730 C.ar   68  TYR68      -0.0198
     75  CD1       54.8440   67.9570   95.8310 C.ar   68  TYR68      -0.0009
     76  CD2       54.8200   68.9590   98.0000 C.ar   68  TYR68      -0.0009
     77  CE1       54.0390   66.9110   96.3060 C.ar   68  TYR68       0.0417
     78  CE2       54.0160   67.9270   98.4880 C.ar   68  TYR68       0.0417
     79  CZ        53.6250   66.9270   97.6380 C.ar   68  TYR68       0.1957
     80  OH        52.8320   65.9290   98.1160 O.3    68  TYR68      -0.2866
     81  N         46.5160   75.6050   95.9870 N.3    78  PHE78      -0.1227
     82  CA        46.4440   74.1550   95.8770 C.3    78  PHE78       0.1736
     83  C         45.2630   73.5550   96.7100 C.2    78  PHE78       0.2595
     84  O         44.4430   72.7720   96.1840 O.2    78  PHE78      -0.2718
     85  CB        47.8110   73.5020   96.2450 C.3    78  PHE78       0.0547
     86  CG        47.7560   72.0040   96.1900 C.ar   78  PHE78      -0.0202
     87  CD1       47.9980   71.3400   95.0160 C.ar   78  PHE78      -0.0042
     88  CD2       47.3290   71.2740   97.2880 C.ar   78  PHE78      -0.0042
     89  CE1       47.8300   69.9290   94.9430 C.ar   78  PHE78      -0.0003
     90  CE2       47.2160   69.9150   97.2230 C.ar   78  PHE78      -0.0003
     91  CZ        47.4330   69.2560   96.0480 C.ar   78  PHE78      -0.0000
     92  N         45.1750   73.9150   97.9780 N.am   79  GLN79      -0.1979
     93  CA        44.2020   73.3050   98.8850 C.3    79  GLN79       0.1601
     94  C         42.7750   73.6300   98.4420 C.2    79  GLN79       0.2287
     95  O         41.9180   72.7680   98.4530 O.2    79  GLN79      -0.2864
     96  CB        44.4090   73.7680  100.3300 C.3    79  GLN79       0.0394
     97  CG        45.6420   73.1500  101.0350 C.3    79  GLN79       0.0908
     98  CD        45.6810   71.6220  100.9420 C.2    79  GLN79       0.2608
     99  OE1       44.6500   70.9510  101.0730 O.2    79  GLN79      -0.2717
    100  NE2       46.8690   71.0690  100.7040 N.am   79  GLN79      -0.0878
    101  N         42.2120   71.4110   95.3660 N.3    82  ALA82      -0.1245
    102  CA        42.1570   69.9890   95.7320 C.3    82  ALA82       0.1562
    103  C         40.7790   69.6510   96.2900 C.2    82  ALA82       0.2260
    104  O         40.1650   68.6400   95.9300 O.2    82  ALA82      -0.2867
    105  CB        43.2440   69.6770   96.7460 C.3    82  ALA82       0.0290
    106  N         37.6860   67.4430   94.5250 N.3    86  ARG86      -0.1245
    107  CA        37.2450   66.2720   95.2630 C.3    86  ARG86       0.1563
    108  C         35.7300   66.2730   95.4210 C.2    86  ARG86       0.2260
    109  O         35.0870   65.2550   95.1970 O.2    86  ARG86      -0.2867
    110  CB        37.8260   66.2450   96.6840 C.3    86  ARG86       0.0307
    111  CG        37.3660   64.9900   97.4660 C.3    86  ARG86       0.0489
    112  CD        37.9660   64.8580   98.9130 C.3    86  ARG86       0.2205
    113  NE        39.3980   65.1000   99.0220 N.pl3  86  ARG86      -0.0865
    114  CZ        40.3730   64.2800   98.6370 C.cat  86  ARG86       0.5346
    115  NH1       40.1110   63.1480   98.0360 N.pl3  86  ARG86       0.1354
    116  NH2       41.6340   64.6560   98.8010 N.pl3  86  ARG86       0.1354
    117  N         40.0430   59.2900  100.4400 N.3   110  ARG110     -0.1245
    118  CA        40.1410   60.4730  101.3130 C.3   110  ARG110      0.1563
    119  C         38.8540   61.2820  101.2380 C.2   110  ARG110      0.2260
    120  O         37.9670   60.9860  100.3920 O.2   110  ARG110     -0.2867
    121  CB        41.3430   61.3520  100.9640 C.3   110  ARG110      0.0307
    122  CG        42.7000   60.7450  101.3080 C.3   110  ARG110      0.0489
    123  CD        43.7070   61.8310  101.5110 C.3   110  ARG110      0.2205
    124  NE        45.0380   61.3050  101.8330 N.pl3 110  ARG110     -0.0865
    125  CZ        46.0810   61.3630  101.0000 C.cat 110  ARG110      0.5346
    126  NH1       45.9210   61.9310   99.8050 N.pl3 110  ARG110      0.1354
    127  NH2       47.2950   60.8850  101.3760 N.pl3 110  ARG110      0.1354
    128  N         41.1690   66.8720  103.7140 N.3   115  ASP115     -0.1239
    129  CA        41.6730   68.0590  103.0000 C.3   115  ASP115      0.1674
    130  C         41.9470   69.1840  103.9920 C.2   115  ASP115      0.2266
    131  O         43.0280   69.7980  103.9720 O.2   115  ASP115     -0.2867
    132  CB        40.6690   68.5420  101.9280 C.3   115  ASP115      0.1410
    133  CG        40.6640   67.6520  100.7060 C.2   115  ASP115      0.3668
    134  OD1       41.7110   67.0410  100.4190 O.co2 115  ASP115     -0.2456
    135  OD2       39.6210   67.5260  100.0230 O.co2 115  ASP115     -0.2456
    136  N         45.6490   68.0690  105.6920 N.3   119  PHE119     -0.1241
    137  CA        46.5540   68.7250  104.7210 C.3   119  PHE119      0.1605
    138  C         46.6340   70.2510  104.8370 C.2   119  PHE119      0.2264
    139  O         47.7310   70.8140  105.0740 O.2   119  PHE119     -0.2867
    140  CB        46.2610   68.2720  103.2960 C.3   119  PHE119      0.0534
    141  CG        46.5650   66.8220  103.0860 C.ar  119  PHE119     -0.0203
    142  CD1       45.5650   65.8700  103.2230 C.ar  119  PHE119     -0.0042
    143  CD2       47.8680   66.4080  102.8260 C.ar  119  PHE119     -0.0042
    144  CE1       45.8300   64.5070  103.0770 C.ar  119  PHE119     -0.0003
    145  CE2       48.1690   65.0300  102.6860 C.ar  119  PHE119     -0.0003
    146  CZ        47.1510   64.0710  102.8250 C.ar  119  PHE119     -0.0000
    147  N         49.6270   72.7460  106.7240 N.3   123  LEU123     -0.1245
    148  CA        50.2380   73.8450  106.0190 C.3   123  LEU123      0.1561
    149  C         50.0720   75.1380  106.7780 C.2   123  LEU123      0.2260
    150  O         50.9930   75.9240  106.8020 O.2   123  LEU123     -0.2867
    151  CB        49.7440   73.9720  104.5620 C.3   123  LEU123      0.0270
    152  CG        50.1280   72.7770  103.6850 C.3   123  LEU123      0.0019
    153  CD1       49.1820   72.6550  102.5170 C.3   123  LEU123      0.0001
    154  CD2       51.6090   72.7580  103.2030 C.3   123  LEU123      0.0001
    155  N         56.3720   53.9040   93.8570 N.3   174  ARG174     -0.1245
    156  CA        55.3150   54.3570   92.9260 C.3   174  ARG174      0.1563
    157  C         55.9260   55.2510   91.8420 C.2   174  ARG174      0.2260
    158  O         55.5840   55.1420   90.6690 O.2   174  ARG174     -0.2867
    159  CB        54.1840   55.0670   93.6710 C.3   174  ARG174      0.0307
    160  CG        53.1330   55.7480   92.7440 C.3   174  ARG174      0.0489
    161  CD        51.9170   56.1830   93.5070 C.3   174  ARG174      0.2205
    162  NE        52.3030   57.2150   94.4700 N.pl3 174  ARG174     -0.0865
    163  CZ        51.5710   57.5800   95.5170 C.cat 174  ARG174      0.5346
    164  NH1       50.4320   56.9440   95.7910 N.pl3 174  ARG174      0.1354
    165  NH2       52.0060   58.5410   96.3060 N.pl3 174  ARG174      0.1354
    166  N         55.8330   58.5750   91.4030 N.3   176  ARG176     -0.1245
    167  CA        55.2160   59.8460   91.0170 C.3   176  ARG176      0.1563
    168  C         56.2730   60.9750   91.0990 C.2   176  ARG176      0.2260
    169  O         56.9080   61.2430   92.1420 O.2   176  ARG176     -0.2867
    170  CB        53.9530   60.0990   91.8670 C.3   176  ARG176      0.0307
    171  CG        53.0250   61.1670   91.3770 C.3   176  ARG176      0.0489
    172  CD        51.8470   61.3190   92.3660 C.3   176  ARG176      0.2205
    173  NE        50.8610   60.2420   92.2300 N.pl3 176  ARG176     -0.0865
    174  CZ        50.1070   59.7760   93.2280 C.cat 176  ARG176      0.5346
    175  NH1       50.2390   60.2440   94.4640 N.pl3 176  ARG176      0.1354
    176  NH2       49.2420   58.7990   92.9970 N.pl3 176  ARG176      0.1354
    177  N         56.6690   63.8450   93.8340 N.3   179  GLU179     -0.1245
    178  CA        56.7950   63.3970   95.2310 C.3   179  GLU179      0.1567
    179  C         58.2250   62.9950   95.5860 C.2   179  GLU179      0.2260
    180  O         58.4990   62.6240   96.7080 O.2   179  GLU179     -0.2867
    181  CB        55.8780   62.1950   95.4590 C.3   179  GLU179      0.0388
    182  CG        54.4390   62.4960   95.0870 C.3   179  GLU179      0.1160
    183  CD        53.5010   61.3640   95.4770 C.2   179  GLU179      0.3649
    184  OE1       53.9540   60.1930   95.5470 O.co2 179  GLU179     -0.2457
    185  OE2       52.3030   61.6490   95.6850 O.co2 179  GLU179     -0.2457
    186  N         58.0990   65.6160  106.6240 N.3   186  TYR186     -0.1241
    187  CA        56.7900   66.0720  106.1200 C.3   186  TYR186      0.1605
    188  C         55.7220   64.9700  106.3090 C.2   186  TYR186      0.2264
    189  O         54.6110   65.2290  106.8100 O.2   186  TYR186     -0.2867
    190  CB        56.9410   66.5710  104.6780 C.3   186  TYR186      0.0534
    191  CG        55.6620   66.7520  103.8900 C.ar  186  TYR186     -0.0201
    192  CD1       54.7710   67.8050  104.1590 C.ar  186  TYR186     -0.0009
    193  CD2       55.3610   65.8980  102.8490 C.ar  186  TYR186     -0.0009
    194  CE1       53.6100   67.9470  103.4150 C.ar  186  TYR186      0.0417
    195  CE2       54.2370   66.0610  102.0920 C.ar  186  TYR186      0.0417
    196  CZ        53.3530   67.0640  102.3980 C.ar  186  TYR186      0.1957
    197  OH        52.2200   67.1480  101.6220 O.3   186  TYR186     -0.2866
@<TRIPOS>BOND
     1    39    40    1
     2    41    42    2
     3    41    40    1
     4    40    43    1
     5    35    34    2
     6    34    33    1
     7   158   157    2
     8   167   168    1
     9   167   166    1
    10   167   170    1
    11   168   169    2
    12   171   170    1
    13   171   172    1
    14    43    44    1
    15    53    54    1
    16   157   156    1
    17    37    36    1
    18    33    32    1
    19    33    36    1
    20    45    44   ar
    21    45    47   ar
    22   173   172    1
    23   173   174    2
    24    57    54    1
    25    57    58    1
    26    26    25    2
    27    44    46   ar
    28    36    38    1
    29    60    58    1
    30   160   161    1
    31   160   159    1
    32    54    55    1
    33   156   159    1
    34   156   155    1
    35   176   174    1
    36    55    56    2
    37    47    48   ar
    38   174   175    1
    39    25    24    1
    40    58    59    1
    41   161   162    1
    42    46    48   ar
    43    46    49   ar
    44   177   178    1
    45    48    50   ar
    46    23    24    1
    47   162   163    2
    48   106   107    1
    49    24    27    1
    50    49    51   ar
    51    61    62    1
    52    89    87   ar
    53    89    91   ar
    54    87    86   ar
    55   182   181    1
    56   182   183    1
    57    50    52   ar
    58   109   108    2
    59   178   181    1
    60   178   179    1
    61   107   108    1
    62   107   110    1
    63   101   102    1
    64   183   184   ar
    65   183   185   ar
    66   163   164    1
    67   163   165    1
    68    27    28    1
    69   179   180    2
    70    51    52   ar
    71   102   103    1
    72   102   105    1
    73    75    77   ar
    74    75    74   ar
    75    82    81    1
    76    82    85    1
    77    82    83    1
    78   104   103    2
    79    28    29    1
    80    91    90   ar
    81    62    65    1
    82    62    63    1
    83    73    74    1
    84    73    70    1
    85    84    83    2
    86    86    85    1
    87    86    88   ar
    88    69    63   am
    89    69    70    1
    90    77    79   ar
    91    65    66    1
    92    74    76   ar
    93   110   111    1
    94    83    92   am
    95    71    70    1
    96    71    72    2
    97    63    64    2
    98    31    29   ar
    99    29    30   ar
   100    90    88   ar
   101   111   112    1
   102    79    80    1
   103    79    78   ar
   104    68    67    1
   105    92    93    1
   106    76    78   ar
   107    66    67    1
   108   115   114    1
   109    17    16    2
   110    16    15    1
   111    94    95    2
   112    94    93    1
   113   114   116    1
   114   114   113    2
   115    93    96    1
   116   112   113    1
   117     7     5    1
   118    13    10    1
   119    10     9    1
   120    10    11    1
   121    14    15    1
   122    15    18    1
   123     9     3   am
   124   126   125    1
   125   135   133   ar
   126    18    19    1
   127    96    97    1
   128   120   119    2
   129   134   133   ar
   130   117   118    1
   131     5     6    1
   132     5     2    1
   133    11    12    2
   134     6     8    1
   135   100    98   am
   136   133   132    1
   137     3     2    1
   138     3     4    2
   139    22    21    1
   140    98    97    1
   141    98    99    2
   142   121   122    1
   143   121   118    1
   144     2     1    1
   145    21    20    1
   146   125   127    1
   147   125   124    2
   148   119   118    1
   149   122   123    1
   150   123   124    1
   151    19    20    1
   152   197   196    1
   153   132   129    1
   154   195   196   ar
   155   195   193   ar
   156   196   194   ar
   157   153   152    1
   158   145   146   ar
   159   145   143   ar
   160   146   144   ar
   161   143   141   ar
   162   193   191   ar
   163   129   128    1
   164   129   130    1
   165   144   142   ar
   166   141   142   ar
   167   141   140    1
   168   154   152    1
   169   140   137    1
   170   194   192   ar
   171   152   151    1
   172   191   192   ar
   173   191   190    1
   174   131   130    2
   175   151   148    1
   176   190   187    1
   177   137   138    1
   178   137   136    1
   179   138   139    2
   180   148   147    1
   181   148   149    1
   182   187   188    1
   183   187   186    1
   184   188   189    2
   185   149   150    2
