@<TRIPOS>MOLECULE
tmp/2no7A00.pdb
 129 123 0 0 0
SMALL
GASTEIGER

@<TRIPOS>ATOM
      1  N         50.5680   59.2440  103.2930 N.3    12  ILE12      -0.1231
      2  CA        50.9600   59.1780  101.8900 C.3    12  ILE12       0.1692
      3  C         51.6880   57.8210  101.6450 C.2    12  ILE12       0.2592
      4  O         52.6870   57.5400  102.3090 O.2    12  ILE12      -0.2718
      5  CB        51.8790   60.3690  101.5050 C.3    12  ILE12       0.0266
      6  CG1       51.1390   61.7170  101.7340 C.3    12  ILE12       0.0019
      7  CG2       52.4000   60.2560  100.0160 C.3    12  ILE12       0.0020
      8  CD1       52.0360   62.9500  101.5880 C.3    12  ILE12       0.0001
      9  N         51.2340   57.0320  100.6720 N.am   13  ALA13      -0.1966
     10  CA        51.8470   55.7130  100.2910 C.3    13  ALA13       0.1728
     11  C         51.7090   54.5560  101.3200 C.2    13  ALA13       0.2616
     12  O         52.4550   53.5770  101.2760 O.2    13  ALA13      -0.2715
     13  CB        53.2820   55.8950   99.8440 C.3    13  ALA13       0.0334
     14  N         50.7340   54.6770  102.2180 N.am   14  ALA14      -0.1963
     15  CA        50.3900   53.6620  103.2150 C.3    14  ALA14       0.1728
     16  C         49.8960   52.4080  102.4920 C.2    14  ALA14       0.2617
     17  O         50.0760   51.2800  102.9770 O.2    14  ALA14      -0.2715
     18  CB        49.2890   54.1790  104.1370 C.3    14  ALA14       0.0334
     19  N         49.2450   52.6420  101.3600 N.am   15  GLY15      -0.1940
     20  CA        48.6820   51.5950  100.4910 C.3    15  GLY15       0.2014
     21  C         47.1810   51.5840  100.3160 C.2    15  GLY15       0.2639
     22  O         46.6000   50.4980  100.0720 O.2    15  GLY15      -0.2714
     23  N         46.5430   52.7620  100.4180 N.am   16  LYS16      -0.1963
     24  CA        45.0690   52.8610  100.3600 C.3    16  LYS16       0.1728
     25  C         44.5300   52.4520   99.0010 C.2    16  LYS16       0.2617
     26  O         43.6010   51.6360   98.9490 O.2    16  LYS16      -0.2715
     27  CB        44.6120   54.2660  100.7020 C.3    16  LYS16       0.0311
     28  CG        45.1590   54.7500  102.0740 C.3    16  LYS16       0.0038
     29  CD        44.6710   56.1640  102.4260 C.3    16  LYS16       0.0206
     30  CE        45.1750   57.1740  101.4780 C.3    16  LYS16       0.1093
     31  NZ        46.7050   57.1170  101.4880 N.3    16  LYS16      -0.1314
     32  N         45.1410   52.9760   97.9240 N.am   17  SER17      -0.1936
     33  CA        44.7250   52.6780   96.5660 C.3    17  SER17       0.2055
     34  C         44.7790   51.1830   96.2800 C.2    17  SER17       0.2643
     35  O         43.8090   50.6000   95.7700 O.2    17  SER17      -0.2714
     36  CB        45.5540   53.4310   95.5450 C.3    17  SER17       0.2130
     37  OG        45.2930   52.9910   94.2230 O.3    17  SER17      -0.2179
     38  N         45.9250   50.6060   96.6180 N.am   18  THR18      -0.1950
     39  CA        46.2410   49.2080   96.3870 C.3    18  THR18       0.1897
     40  C         45.2190   48.3350   97.0790 C.2    18  THR18       0.2313
     41  O         44.5570   47.5200   96.4310 O.2    18  THR18      -0.2863
     42  CB        47.6640   48.9140   96.9410 C.3    18  THR18       0.1794
     43  OG1       48.6080   49.7380   96.2480 O.3    18  THR18      -0.2208
     44  CG2       48.0780   47.4340   96.7170 C.3    18  THR18       0.0378
     45  N         38.5190   57.2050   98.7270 N.3   109  GLU109     -0.1245
     46  CA        39.9380   57.2900   99.1050 C.3   109  GLU109      0.1567
     47  C         40.1690   58.6770   99.7510 C.2   109  GLU109      0.2260
     48  O         40.2700   59.6760   99.0400 O.2   109  GLU109     -0.2867
     49  CB        40.8880   57.1100   97.9060 C.3   109  GLU109      0.0388
     50  CG        40.9180   55.7370   97.2300 C.3   109  GLU109      0.1160
     51  CD        41.9680   55.6440   96.1070 C.2   109  GLU109      0.3649
     52  OE1       42.8460   56.5580   95.9620 O.co2 109  GLU109     -0.2457
     53  OE2       41.8830   54.6500   95.3200 O.co2 109  GLU109     -0.2457
     54  N         57.5270   53.3250  100.6110 N.3   170  ARG170     -0.1245
     55  CA        56.5120   53.1400   99.6090 C.3   170  ARG170      0.1563
     56  C         56.4080   54.3090   98.6350 C.2   170  ARG170      0.2260
     57  O         56.0770   54.0890   97.4620 O.2   170  ARG170     -0.2867
     58  CB        55.1790   52.6930  100.2280 C.3   170  ARG170      0.0307
     59  CG        55.2790   51.3160  100.8920 C.3   170  ARG170      0.0489
     60  CD        53.9660   50.8190  101.4700 C.3   170  ARG170      0.2205
     61  NE        54.1890   49.4750  102.0970 N.pl3 170  ARG170     -0.0865
     62  CZ        53.3400   48.9320  102.9530 C.cat 170  ARG170      0.5346
     63  NH1       52.1780   49.5620  103.2050 N.pl3 170  ARG170      0.1354
     64  NH2       53.6000   47.7590  103.4880 N.pl3 170  ARG170      0.1354
     65  N         59.0230   53.3970   96.2130 N.3   173  LEU173     -0.1231
     66  CA        58.5880   52.2980   95.3550 C.3   173  LEU173      0.1693
     67  C         57.6760   52.8210   94.2660 C.2   173  LEU173      0.2591
     68  O         57.8040   52.4450   93.0730 O.2   173  LEU173     -0.2718
     69  CB        57.8580   51.2220   96.1710 C.3   173  LEU173      0.0284
     70  CG        58.7310   50.4410   97.1630 C.3   173  LEU173      0.0019
     71  CD1       57.8210   49.3270   97.7340 C.3   173  LEU173      0.0001
     72  CD2       59.9350   49.9030   96.4260 C.3   173  LEU173      0.0001
     73  N         56.7800   53.7200   94.6530 N.am  174  ARG174     -0.1980
     74  CA        55.7000   54.1230   93.7410 C.3   174  ARG174      0.1597
     75  C         56.2620   55.0200   92.6540 C.2   174  ARG174      0.2287
     76  O         55.7780   54.9890   91.5220 O.2   174  ARG174     -0.2864
     77  CB        54.5680   54.8360   94.4800 C.3   174  ARG174      0.0334
     78  CG        53.6230   55.5970   93.5670 C.3   174  ARG174      0.0492
     79  CD        52.3520   55.9150   94.2750 C.3   174  ARG174      0.2205
     80  NE        52.6210   56.9670   95.2600 N.pl3 174  ARG174     -0.0865
     81  CZ        51.8390   57.2430   96.2940 C.cat 174  ARG174      0.5346
     82  NH1       50.7450   56.5100   96.5190 N.pl3 174  ARG174      0.1354
     83  NH2       52.1710   58.2260   97.1130 N.pl3 174  ARG174      0.1354
     84  N         56.3010   58.3980   92.2820 N.3   176  ARG176     -0.1245
     85  CA        55.6310   59.6210   91.8490 C.3   176  ARG176      0.1563
     86  C         56.6430   60.7610   91.9690 C.2   176  ARG176      0.2260
     87  O         57.1800   61.0290   93.0210 O.2   176  ARG176     -0.2867
     88  CB        54.3440   59.8610   92.6560 C.3   176  ARG176      0.0307
     89  CG        53.4760   61.0180   92.1810 C.3   176  ARG176      0.0489
     90  CD        52.2420   61.1460   93.0860 C.3   176  ARG176      0.2205
     91  NE        51.2740   60.0790   92.8400 N.pl3 176  ARG176     -0.0865
     92  CZ        50.4690   59.5640   93.7580 C.cat 176  ARG176      0.5346
     93  NH1       50.5280   59.9720   95.0140 N.pl3 176  ARG176      0.1354
     94  NH2       49.6670   58.5750   93.4390 N.pl3 176  ARG176      0.1354
     95  N         49.0810   48.0180  108.1320 N.3   220  VAL220     -0.1245
     96  CA        49.5150   47.6400  106.7700 C.3   220  VAL220      0.1561
     97  C         51.0370   47.6770  106.5540 C.2   220  VAL220      0.2260
     98  O         51.5160   47.8050  105.4310 O.2   220  VAL220     -0.2867
     99  CB        48.7720   48.4820  105.6520 C.3   220  VAL220      0.0252
    100  CG1       47.3010   48.1240  105.6180 C.3   220  VAL220      0.0019
    101  CG2       48.9030   49.9440  105.8860 C.3   220  VAL220      0.0019
    102  N         53.1950   45.1720  106.8920 N.3   222  GLU222     -0.1231
    103  CA        53.7380   43.9680  106.2650 C.3   222  GLU222      0.1699
    104  C         53.5090   43.9500  104.7680 C.2   222  GLU222      0.2592
    105  O         52.6500   44.6450  104.2470 O.2   222  GLU222     -0.2718
    106  CB        53.1620   42.6980  106.8850 C.3   222  GLU222      0.0402
    107  CG        53.3860   42.6020  108.4080 C.3   222  GLU222      0.1161
    108  CD        54.8580   42.6360  108.8100 C.2   222  GLU222      0.3649
    109  OE1       55.7080   42.1120  108.0410 O.co2 222  GLU222     -0.2457
    110  OE2       55.1640   43.1640  109.9150 O.co2 222  GLU222     -0.2457
    111  N         54.2920   43.1350  104.0760 N.am  223  ASP223     -0.1960
    112  CA        54.0560   42.9020  102.6760 C.3   223  ASP223      0.1840
    113  C         52.5980   42.4970  102.4630 C.2   223  ASP223      0.2622
    114  O         51.9960   41.8190  103.3060 O.2   223  ASP223     -0.2715
    115  CB        54.9260   41.7340  102.2650 C.3   223  ASP223      0.1450
    116  CG        55.6720   41.9830  101.0140 C.2   223  ASP223      0.3671
    117  OD1       55.2040   42.8440  100.2200 O.co2 223  ASP223     -0.2456
    118  OD2       56.7210   41.3120  100.8260 O.co2 223  ASP223     -0.2456
    119  N         52.0450   42.8930  101.3190 N.am  224  PHE224     -0.1974
    120  CA        50.6220   42.7440  101.0160 C.3   224  PHE224      0.1639
    121  C         50.0280   41.3380  101.2580 C.2   224  PHE224      0.2290
    122  O         48.9930   41.2230  101.9210 O.2   224  PHE224     -0.2864
    123  CB        50.3080   43.2280   99.5850 C.3   224  PHE224      0.0560
    124  CG        48.8520   43.4610   99.3590 C.ar  224  PHE224     -0.0200
    125  CD1       48.2900   44.6960   99.6420 C.ar  224  PHE224     -0.0042
    126  CD2       48.0270   42.4180   98.9290 C.ar  224  PHE224     -0.0042
    127  CE1       46.8950   44.9330   99.4610 C.ar  224  PHE224     -0.0003
    128  CE2       46.6370   42.6380   98.7330 C.ar  224  PHE224     -0.0003
    129  CZ        46.0800   43.8950   99.0190 C.ar  224  PHE224     -0.0000
@<TRIPOS>BOND
     1    76    75    2
     2    85    86    1
     3    85    84    1
     4    85    88    1
     5    86    87    2
     6    89    88    1
     7    89    90    1
     8    75    74    1
     9    91    90    1
    10    91    92    2
    11    68    67    2
    12    94    92    1
    13    78    79    1
    14    78    77    1
    15    74    77    1
    16    74    73    1
    17    92    93    1
    18    37    36    1
    19    67    73   am
    20    67    66    1
    21    79    80    1
    22    80    81    2
    23    53    51   ar
    24    66    69    1
    25    66    65    1
    26    36    33    1
    27    35    34    2
    28    52    51   ar
    29    51    50    1
    30    69    70    1
    31    43    42    1
    32    34    33    1
    33    34    38   am
    34    81    82    1
    35    81    83    1
    36    39    38    1
    37    39    42    1
    38    39    40    1
    39    72    70    1
    40    41    40    2
    41    33    32    1
    42    44    42    1
    43    70    71    1
    44    50    49    1
    45    57    56    2
    46    49    46    1
    47    32    25   am
    48    56    55    1
    49    45    46    1
    50   128   126   ar
    51   128   129   ar
    52   126   124   ar
    53    26    25    2
    54    25    24    1
    55   129   127   ar
    56    48    47    2
    57    46    47    1
    58   124   123    1
    59   124   125   ar
    60   127   125   ar
    61   123   120    1
    62    55    58    1
    63    55    54    1
    64    13    10    1
    65     7     5    1
    66    22    21    2
    67   117   116   ar
    68    58    59    1
    69    10     9    1
    70    10    11    1
    71    21    23   am
    72    21    20    1
    73    24    23    1
    74    24    27    1
    75    20    19    1
    76     9     3   am
    77    27    28    1
    78   118   116   ar
    79    59    60    1
    80   116   115    1
    81   120   121    1
    82   120   119    1
    83   121   122    2
    84    12    11    2
    85   119   113   am
    86    11    14   am
    87    19    16   am
    88    60    61    1
    89    30    31    1
    90    30    29    1
    91     5     6    1
    92     5     2    1
    93     8     6    1
    94     3     2    1
    95     3     4    2
    96     2     1    1
    97    28    29    1
    98    61    62    2
    99    14    15    1
   100   115   112    1
   101   113   112    1
   102   113   114    2
   103    16    17    2
   104    16    15    1
   105   112   111    1
   106    62    63    1
   107    62    64    1
   108    15    18    1
   109   111   104   am
   110   105   104    2
   111   104   103    1
   112    98    97    2
   113   100    99    1
   114    99   101    1
   115    99    96    1
   116   103   106    1
   117   103   102    1
   118    97    96    1
   119    96    95    1
   120   106   107    1
   121   109   108   ar
   122   107   108    1
   123   108   110   ar
