@<TRIPOS>MOLECULE
tmp/2no7A01.pdb
 192 180 0 0 0
SMALL
GASTEIGER

@<TRIPOS>ATOM
      1  N         50.5680   59.2440  103.2930 N.3    12  ILE12      -0.1245
      2  CA        50.9600   59.1780  101.8900 C.3    12  ILE12       0.1561
      3  C         51.6880   57.8210  101.6450 C.2    12  ILE12       0.2260
      4  O         52.6870   57.5400  102.3090 O.2    12  ILE12      -0.2867
      5  CB        51.8790   60.3690  101.5050 C.3    12  ILE12       0.0252
      6  CG1       51.1390   61.7170  101.7340 C.3    12  ILE12       0.0019
      7  CG2       52.4000   60.2560  100.0160 C.3    12  ILE12       0.0019
      8  CD1       52.0360   62.9500  101.5880 C.3    12  ILE12       0.0001
      9  N         46.5430   52.7620  100.4180 N.3    16  LYS16      -0.1245
     10  CA        45.0690   52.8610  100.3600 C.3    16  LYS16       0.1561
     11  C         44.5300   52.4520   99.0010 C.2    16  LYS16       0.2260
     12  O         43.6010   51.6360   98.9490 O.2    16  LYS16      -0.2867
     13  CB        44.6120   54.2660  100.7020 C.3    16  LYS16       0.0271
     14  CG        45.1590   54.7500  102.0740 C.3    16  LYS16       0.0035
     15  CD        44.6710   56.1640  102.4260 C.3    16  LYS16       0.0206
     16  CE        45.1750   57.1740  101.4780 C.3    16  LYS16       0.1093
     17  NZ        46.7050   57.1170  101.4880 N.3    16  LYS16      -0.1314
     18  N         41.1860   59.1120   94.8170 N.3    35  GLU35      -0.1245
     19  CA        41.5370   60.4920   95.0930 C.3    35  GLU35       0.1567
     20  C         41.9720   61.1800   93.7670 C.2    35  GLU35       0.2260
     21  O         42.6690   60.5560   92.9630 O.2    35  GLU35      -0.2867
     22  CB        42.6610   60.4910   96.0980 C.3    35  GLU35       0.0388
     23  CG        42.9640   61.8210   96.6580 C.3    35  GLU35       0.1160
     24  CD        44.0740   61.7290   97.7130 C.2    35  GLU35       0.3649
     25  OE1       43.8870   62.2840   98.8110 O.co2  35  GLU35      -0.2457
     26  OE2       45.1090   61.1060   97.4080 O.co2  35  GLU35      -0.2457
     27  N         44.3680   62.6950   92.4220 N.3    37  VAL37      -0.1245
     28  CA        45.7780   63.0890   92.3500 C.3    37  VAL37       0.1561
     29  C         46.2160   63.5160   90.9150 C.2    37  VAL37       0.2260
     30  O         46.9320   64.5260   90.7540 O.2    37  VAL37      -0.2867
     31  CB        46.7300   62.0330   93.0160 C.3    37  VAL37       0.0252
     32  CG1       46.7240   60.7350   92.2060 C.3    37  VAL37       0.0019
     33  CG2       48.1770   62.5930   93.2020 C.3    37  VAL37       0.0019
     34  N         45.6380   66.9660   89.9600 N.3    40  TRP40      -0.1241
     35  CA        46.5210   67.9370   90.6320 C.3    40  TRP40       0.1605
     36  C         47.8800   68.0820   89.9860 C.2    40  TRP40       0.2264
     37  O         48.4790   69.1650   90.0550 O.2    40  TRP40      -0.2867
     38  CB        46.6990   67.5940   92.1250 C.3    40  TRP40       0.0550
     39  CG        45.4330   67.2980   92.8900 C.ar   40  TRP40       0.0003
     40  CD1       44.1490   67.7250   92.5870 C.ar   40  TRP40       0.0946
     41  CD2       45.3170   66.5140   94.0820 C.ar   40  TRP40       0.0152
     42  NE1       43.2800   67.2660   93.5260 N.ar   40  TRP40      -0.2442
     43  CE2       43.9670   66.5310   94.4600 C.ar   40  TRP40       0.0810
     44  CE3       46.2430   65.8220   94.8990 C.ar   40  TRP40       0.0012
     45  CZ2       43.5030   65.8640   95.5990 C.ar   40  TRP40       0.0191
     46  CZ3       45.7620   65.1530   96.0260 C.ar   40  TRP40       0.0001
     47  CH2       44.4170   65.1900   96.3570 C.ar   40  TRP40       0.0015
     48  N         50.4710   70.2060   92.3720 N.3    64  LEU64      -0.1245
     49  CA        51.1020   69.2730   93.3100 C.3    64  LEU64       0.1561
     50  C         52.6050   69.5890   93.4800 C.2    64  LEU64       0.2260
     51  O         53.0900   69.7600   94.5810 O.2    64  LEU64      -0.2867
     52  CB        50.9190   67.8310   92.8230 C.3    64  LEU64       0.0270
     53  CG        51.3190   66.7310   93.7950 C.3    64  LEU64       0.0019
     54  CD1       50.5020   66.8220   95.0750 C.3    64  LEU64       0.0001
     55  CD2       51.2020   65.4000   93.0780 C.3    64  LEU64       0.0001
     56  N         53.1530   73.0460   95.2050 N.3    67  MET67      -0.1230
     57  CA        53.0050   72.9400   96.6340 C.3    67  MET67       0.1702
     58  C         54.2730   72.3470   97.2980 C.2    67  MET67       0.2592
     59  O         54.7320   72.8810   98.3030 O.2    67  MET67      -0.2718
     60  CB        51.7570   72.1560   97.0240 C.3    67  MET67       0.0401
     61  CG        51.6000   72.2040   98.5090 C.3    67  MET67       0.0596
     62  SD        50.4290   71.1460   99.2980 S.3    67  MET67      -0.1393
     63  CE        50.8470   69.5120   98.5610 C.3    67  MET67       0.0692
     64  N         54.8300   71.3050   96.7270 N.am   68  TYR68      -0.1976
     65  CA        56.0240   70.6990   97.3590 C.3    68  TYR68       0.1639
     66  C         57.2820   71.5600   97.2130 C.2    68  TYR68       0.2290
     67  O         58.1800   71.5220   98.0990 O.2    68  TYR68      -0.2864
     68  CB        56.3000   69.2860   96.8450 C.3    68  TYR68       0.0560
     69  CG        55.4510   68.2620   97.4820 C.ar   68  TYR68      -0.0198
     70  CD1       54.6690   67.4170   96.6960 C.ar   68  TYR68      -0.0009
     71  CD2       55.3140   68.1870   98.8900 C.ar   68  TYR68      -0.0009
     72  CE1       53.8490   66.4910   97.2610 C.ar   68  TYR68       0.0417
     73  CE2       54.4750   67.2510   99.4690 C.ar   68  TYR68       0.0417
     74  CZ        53.7420   66.3950   98.6450 C.ar   68  TYR68       0.1957
     75  OH        52.8680   65.4490   99.1650 O.3    68  TYR68      -0.2866
     76  N         46.7490   74.9330   96.5170 N.3    78  PHE78      -0.1227
     77  CA        46.6700   73.5120   96.4360 C.3    78  PHE78       0.1736
     78  C         45.5310   72.9220   97.2930 C.2    78  PHE78       0.2595
     79  O         44.7180   72.1550   96.7690 O.2    78  PHE78      -0.2718
     80  CB        48.0340   72.8540   96.7270 C.3    78  PHE78       0.0547
     81  CG        47.9340   71.3680   96.7540 C.ar   78  PHE78      -0.0202
     82  CD1       48.0610   70.6590   95.5720 C.ar   78  PHE78      -0.0042
     83  CD2       47.5840   70.6910   97.9260 C.ar   78  PHE78      -0.0042
     84  CE1       47.8810   69.2160   95.5640 C.ar   78  PHE78      -0.0003
     85  CE2       47.4310   69.2710   97.9180 C.ar   78  PHE78      -0.0003
     86  CZ        47.5980   68.5720   96.7440 C.ar   78  PHE78      -0.0000
     87  N         45.4470   73.2960   98.5740 N.am   79  GLN79      -0.1979
     88  CA        44.4670   72.6490   99.4210 C.3    79  GLN79       0.1601
     89  C         43.0430   72.9500   98.9790 C.2    79  GLN79       0.2287
     90  O         42.1750   72.0720   99.0250 O.2    79  GLN79      -0.2864
     91  CB        44.7170   73.0530  100.8810 C.3    79  GLN79       0.0394
     92  CG        45.9610   72.3880  101.4870 C.3    79  GLN79       0.0908
     93  CD        45.8460   70.8670  101.4940 C.2    79  GLN79       0.2608
     94  OE1       44.7590   70.3100  101.7120 O.2    79  GLN79      -0.2717
     95  NE2       46.9630   70.1920  101.2100 N.am   79  GLN79      -0.0878
     96  N         42.4490   70.8110   95.9750 N.3    82  ALA82      -0.1245
     97  CA        42.3830   69.3730   96.3380 C.3    82  ALA82       0.1562
     98  C         40.9790   69.0610   96.8460 C.2    82  ALA82       0.2260
     99  O         40.3780   68.0510   96.4860 O.2    82  ALA82      -0.2867
    100  CB        43.3860   69.0300   97.4190 C.3    82  ALA82       0.0290
    101  N         37.9370   66.7670   95.0880 N.3    86  ARG86      -0.1245
    102  CA        37.3770   65.6500   95.8100 C.3    86  ARG86       0.1563
    103  C         35.8600   65.7140   95.9320 C.2    86  ARG86       0.2260
    104  O         35.1750   64.7000   95.6800 O.2    86  ARG86      -0.2867
    105  CB        37.9820   65.6070   97.2250 C.3    86  ARG86       0.0307
    106  CG        37.5600   64.4100   97.9980 C.3    86  ARG86       0.0489
    107  CD        38.1540   64.3680   99.4250 C.3    86  ARG86       0.2205
    108  NE        39.6010   64.5110   99.5430 N.pl3  86  ARG86      -0.0865
    109  CZ        40.5420   63.6420   99.1620 C.cat  86  ARG86       0.5346
    110  NH1       40.2600   62.5040   98.5550 N.pl3  86  ARG86       0.1354
    111  NH2       41.8140   63.9360   99.3910 N.pl3  86  ARG86       0.1354
    112  N         40.2680   58.7200  101.0880 N.3   110  ARG110     -0.1245
    113  CA        40.2830   59.9290  101.8810 C.3   110  ARG110      0.1563
    114  C         38.9840   60.6900  101.8090 C.2   110  ARG110      0.2260
    115  O         38.0560   60.3260  101.0570 O.2   110  ARG110     -0.2867
    116  CB        41.4560   60.8530  101.5530 C.3   110  ARG110      0.0307
    117  CG        42.8180   60.2950  101.9660 C.3   110  ARG110      0.0489
    118  CD        43.7970   61.4060  102.1610 C.3   110  ARG110      0.2205
    119  NE        45.0810   60.8560  102.5870 N.pl3 110  ARG110     -0.0865
    120  CZ        46.1560   60.8230  101.8230 C.cat 110  ARG110      0.5346
    121  NH1       46.0670   61.2820  100.5830 N.pl3 110  ARG110      0.1354
    122  NH2       47.3230   60.3070  102.2860 N.pl3 110  ARG110      0.1354
    123  N         41.2700   66.2500  104.4470 N.3   115  ASP115     -0.1239
    124  CA        41.8040   67.3940  103.7130 C.3   115  ASP115      0.1674
    125  C         42.0300   68.5480  104.6740 C.2   115  ASP115      0.2266
    126  O         43.1240   69.1790  104.6820 O.2   115  ASP115     -0.2867
    127  CB        40.8750   67.8350  102.5990 C.3   115  ASP115      0.1410
    128  CG        40.9240   66.9220  101.4000 C.2   115  ASP115      0.3668
    129  OD1       41.9710   66.2520  101.1190 O.co2 115  ASP115     -0.2456
    130  OD2       39.8920   66.9140  100.7100 O.co2 115  ASP115     -0.2456
    131  N         45.8280   67.3780  106.3900 N.3   119  PHE119     -0.1241
    132  CA        46.6990   68.0690  105.4530 C.3   119  PHE119      0.1605
    133  C         46.8030   69.6080  105.5270 C.2   119  PHE119      0.2264
    134  O         47.9340   70.1580  105.6620 O.2   119  PHE119     -0.2867
    135  CB        46.4650   67.6000  104.0100 C.3   119  PHE119      0.0534
    136  CG        46.8640   66.1740  103.8020 C.ar  119  PHE119     -0.0203
    137  CD1       45.9590   65.1370  104.0560 C.ar  119  PHE119     -0.0042
    138  CD2       48.1630   65.8740  103.4220 C.ar  119  PHE119     -0.0042
    139  CE1       46.3630   63.7560  103.8700 C.ar  119  PHE119     -0.0003
    140  CE2       48.5690   64.5670  103.2640 C.ar  119  PHE119     -0.0003
    141  CZ        47.6940   63.5090  103.4650 C.ar  119  PHE119     -0.0000
    142  N         49.7610   72.1010  107.2650 N.3   123  LEU123     -0.1245
    143  CA        50.3540   73.2390  106.5380 C.3   123  LEU123      0.1561
    144  C         50.2900   74.5510  107.3340 C.2   123  LEU123      0.2260
    145  O         51.2460   75.3000  107.3650 O.2   123  LEU123     -0.2867
    146  CB        49.6940   73.4080  105.1670 C.3   123  LEU123      0.0270
    147  CG        50.0510   72.2210  104.2610 C.3   123  LEU123      0.0019
    148  CD1       49.3000   72.3110  102.9740 C.3   123  LEU123      0.0001
    149  CD2       51.5920   72.1060  103.9940 C.3   123  LEU123      0.0001
    150  N         56.7800   53.7200   94.6530 N.3   174  ARG174     -0.1245
    151  CA        55.7000   54.1230   93.7410 C.3   174  ARG174      0.1563
    152  C         56.2620   55.0200   92.6540 C.2   174  ARG174      0.2260
    153  O         55.7780   54.9890   91.5220 O.2   174  ARG174     -0.2867
    154  CB        54.5680   54.8360   94.4800 C.3   174  ARG174      0.0307
    155  CG        53.6230   55.5970   93.5670 C.3   174  ARG174      0.0489
    156  CD        52.3520   55.9150   94.2750 C.3   174  ARG174      0.2205
    157  NE        52.6210   56.9670   95.2600 N.pl3 174  ARG174     -0.0865
    158  CZ        51.8390   57.2430   96.2940 C.cat 174  ARG174      0.5346
    159  NH1       50.7450   56.5100   96.5190 N.pl3 174  ARG174      0.1354
    160  NH2       52.1710   58.2260   97.1130 N.pl3 174  ARG174      0.1354
    161  N         56.3010   58.3980   92.2820 N.3   176  ARG176     -0.1245
    162  CA        55.6310   59.6210   91.8490 C.3   176  ARG176      0.1563
    163  C         56.6430   60.7610   91.9690 C.2   176  ARG176      0.2260
    164  O         57.1800   61.0290   93.0210 O.2   176  ARG176     -0.2867
    165  CB        54.3440   59.8610   92.6560 C.3   176  ARG176      0.0307
    166  CG        53.4760   61.0180   92.1810 C.3   176  ARG176      0.0489
    167  CD        52.2420   61.1460   93.0860 C.3   176  ARG176      0.2205
    168  NE        51.2740   60.0790   92.8400 N.pl3 176  ARG176     -0.0865
    169  CZ        50.4690   59.5640   93.7580 C.cat 176  ARG176      0.5346
    170  NH1       50.5280   59.9720   95.0140 N.pl3 176  ARG176      0.1354
    171  NH2       49.6670   58.5750   93.4390 N.pl3 176  ARG176      0.1354
    172  N         56.8270   63.6740   94.7350 N.3   179  GLU179     -0.1245
    173  CA        56.9030   63.2800   96.1340 C.3   179  GLU179      0.1567
    174  C         58.2980   62.8000   96.5140 C.2   179  GLU179      0.2260
    175  O         58.5190   62.4200   97.6750 O.2   179  GLU179     -0.2867
    176  CB        55.9310   62.1240   96.3900 C.3   179  GLU179      0.0388
    177  CG        54.4750   62.5100   96.3520 C.3   179  GLU179      0.1160
    178  CD        53.5080   61.3210   96.4120 C.2   179  GLU179      0.3649
    179  OE1       53.9720   60.1100   96.3290 O.co2 179  GLU179     -0.2457
    180  OE2       52.2770   61.5940   96.5550 O.co2 179  GLU179     -0.2457
    181  N         58.2630   65.2480  107.5590 N.3   186  TYR186     -0.1241
    182  CA        56.9460   65.6450  107.0610 C.3   186  TYR186      0.1605
    183  C         55.9320   64.5060  107.2380 C.2   186  TYR186      0.2264
    184  O         54.8060   64.7280  107.7160 O.2   186  TYR186     -0.2867
    185  CB        57.0820   65.9960  105.5680 C.3   186  TYR186      0.0534
    186  CG        55.8220   66.5170  104.9290 C.ar  186  TYR186     -0.0201
    187  CD1       55.3970   67.8250  105.1510 C.ar  186  TYR186     -0.0009
    188  CD2       55.0410   65.7040  104.1160 C.ar  186  TYR186     -0.0009
    189  CE1       54.2270   68.3050  104.5670 C.ar  186  TYR186      0.0417
    190  CE2       53.8560   66.1710  103.5350 C.ar  186  TYR186      0.0417
    191  CZ        53.4540   67.4620  103.7500 C.ar  186  TYR186      0.1957
    192  OH        52.2820   67.9520  103.1650 O.3   186  TYR186     -0.2866
@<TRIPOS>BOND
     1    34    35    1
     2    36    37    2
     3    36    35    1
     4    35    38    1
     5    30    29    2
     6    29    28    1
     7   153   152    2
     8   162   163    1
     9   162   161    1
    10   162   165    1
    11   163   164    2
    12    38    39    1
    13   166   165    1
    14   166   167    1
    15    32    31    1
    16    28    27    1
    17    28    31    1
    18    48    49    1
    19    40    39   ar
    20    40    42   ar
    21   152   151    1
    22    52    49    1
    23    52    53    1
    24   168   167    1
    25   168   169    2
    26    39    41   ar
    27    21    20    2
    28    31    33    1
    29    55    53    1
    30    49    50    1
    31   171   169    1
    32    50    51    2
    33    42    43   ar
    34   155   156    1
    35   155   154    1
    36   151   154    1
    37   151   150    1
    38   169   170    1
    39    20    19    1
    40    53    54    1
    41    41    43   ar
    42    41    44   ar
    43   156   157    1
    44    43    45   ar
    45   172   173    1
    46    18    19    1
    47    44    46   ar
    48   101   102    1
    49    19    22    1
    50    56    57    1
    51   157   158    2
    52    84    82   ar
    53    84    86   ar
    54    82    81   ar
    55    45    47   ar
    56   104   103    2
    57   102   103    1
    58   102   105    1
    59    96    97    1
    60    46    47   ar
    61    22    23    1
    62   173   176    1
    63   173   174    1
    64   158   159    1
    65   158   160    1
    66   179   178   ar
    67    97    98    1
    68    97   100    1
    69   177   176    1
    70   177   178    1
    71   178   180   ar
    72    77    76    1
    73    77    80    1
    74    77    78    1
    75    99    98    2
    76   174   175    2
    77    57    60    1
    78    57    58    1
    79    23    24    1
    80    70    72   ar
    81    70    69   ar
    82    80    81    1
    83    64    58   am
    84    64    65    1
    85    86    85   ar
    86    81    83   ar
    87    79    78    2
    88    68    65    1
    89    68    69    1
    90    60    61    1
    91    66    65    1
    92    66    67    2
    93   105   106    1
    94    72    74   ar
    95    78    87   am
    96    58    59    2
    97    26    24   ar
    98    69    71   ar
    99    24    25   ar
   100    85    83   ar
   101   106   107    1
   102    61    62    1
   103   110   109    1
   104    63    62    1
   105    87    88    1
   106    74    75    1
   107    74    73   ar
   108    71    73   ar
   109    12    11    2
   110    89    90    2
   111    89    88    1
   112    11    10    1
   113   109   111    1
   114   109   108    2
   115    88    91    1
   116   107   108    1
   117     7     5    1
   118    10     9    1
   119    10    13    1
   120   121   120    1
   121    13    14    1
   122   130   128   ar
   123    91    92    1
   124   115   114    2
   125   112   113    1
   126   129   128   ar
   127    95    93   am
   128   128   127    1
   129    16    17    1
   130    16    15    1
   131    92    93    1
   132    93    94    2
   133     5     6    1
   134     5     2    1
   135   116   113    1
   136   116   117    1
   137     8     6    1
   138     3     2    1
   139     3     4    2
   140   114   113    1
   141   120   122    1
   142   120   119    2
   143     2     1    1
   144   117   118    1
   145    14    15    1
   146   118   119    1
   147   127   124    1
   148   148   147    1
   149   192   191    1
   150   140   138   ar
   151   140   141   ar
   152   138   136   ar
   153   141   139   ar
   154   190   191   ar
   155   190   188   ar
   156   124   123    1
   157   124   125    1
   158   191   189   ar
   159   136   135    1
   160   136   137   ar
   161   139   137   ar
   162   149   147    1
   163   135   132    1
   164   188   186   ar
   165   147   146    1
   166   189   187   ar
   167   125   126    2
   168   186   187   ar
   169   186   185    1
   170   146   143    1
   171   132   133    1
   172   132   131    1
   173   133   134    2
   174   185   182    1
   175   143   142    1
   176   143   144    1
   177   182   183    1
   178   182   181    1
   179   183   184    2
   180   144   145    2
