@<TRIPOS>MOLECULE
tmp/2no9A01.pdb
 197 185 0 0 0
SMALL
GASTEIGER

@<TRIPOS>ATOM
      1  N         50.4660   59.5850  102.7890 N.3    12  ILE12      -0.1231
      2  CA        50.8360   59.5140  101.4100 C.3    12  ILE12       0.1692
      3  C         51.5410   58.1770  101.1410 C.2    12  ILE12       0.2591
      4  O         52.4750   57.8260  101.8310 O.2    12  ILE12      -0.2718
      5  CB        51.7300   60.7170  101.0560 C.3    12  ILE12       0.0266
      6  CG1       50.9930   62.0560  101.2250 C.3    12  ILE12       0.0019
      7  CG2       52.2540   60.6390   99.6120 C.3    12  ILE12       0.0020
      8  CD1       52.0230   63.2920  101.2110 C.3    12  ILE12       0.0001
      9  N         51.1160   57.4630  100.1010 N.am   13  ALA13      -0.1980
     10  CA        51.6810   56.1690   99.7590 C.3    13  ALA13       0.1597
     11  C         51.4680   55.0700  100.8190 C.2    13  ALA13       0.2287
     12  O         52.2290   54.0810  100.8070 O.2    13  ALA13      -0.2864
     13  CB        53.1300   56.3000   99.4550 C.3    13  ALA13       0.0319
     14  N         46.5830   53.1820   99.9030 N.3    16  LYS16      -0.1245
     15  CA        45.1080   53.3490   99.9230 C.3    16  LYS16       0.1561
     16  C         44.4760   52.9900   98.5990 C.2    16  LYS16       0.2260
     17  O         43.5120   52.2550   98.5450 O.2    16  LYS16      -0.2867
     18  CB        44.6470   54.7510  100.3830 C.3    16  LYS16       0.0271
     19  CG        45.0240   55.0510  101.8610 C.3    16  LYS16       0.0035
     20  CD        44.6590   56.5100  102.2660 C.3    16  LYS16       0.0206
     21  CE        45.0140   57.5090  101.1990 C.3    16  LYS16       0.1093
     22  NZ        46.5630   57.6390  101.0730 N.3    16  LYS16      -0.1314
     23  N         41.0960   59.7640   94.5080 N.3    35  GLU35      -0.1245
     24  CA        41.5710   61.1320   94.7720 C.3    35  GLU35       0.1567
     25  C         42.0450   61.7700   93.4540 C.2    35  GLU35       0.2260
     26  O         42.8560   61.1630   92.7430 O.2    35  GLU35      -0.2867
     27  CB        42.7500   61.0780   95.7350 C.3    35  GLU35       0.0388
     28  CG        43.2170   62.4230   96.1890 C.3    35  GLU35       0.1160
     29  CD        44.0490   62.3680   97.4820 C.2    35  GLU35       0.3649
     30  OE1       43.5440   62.7830   98.5560 O.co2  35  GLU35      -0.2457
     31  OE2       45.2150   61.9290   97.4020 O.co2  35  GLU35      -0.2457
     32  N         44.3500   63.2590   92.1380 N.3    37  VAL37      -0.1245
     33  CA        45.7590   63.6930   92.0580 C.3    37  VAL37       0.1561
     34  C         46.2090   64.0590   90.6350 C.2    37  VAL37       0.2260
     35  O         47.0250   64.9660   90.4610 O.2    37  VAL37      -0.2867
     36  CB        46.7240   62.6660   92.6690 C.3    37  VAL37       0.0252
     37  CG1       46.8440   61.4810   91.7620 C.3    37  VAL37       0.0019
     38  CG2       48.0740   63.2780   92.9100 C.3    37  VAL37       0.0019
     39  N         45.6020   67.5290   89.6010 N.3    40  TRP40      -0.1241
     40  CA        46.3360   68.5630   90.3570 C.3    40  TRP40       0.1605
     41  C         47.6730   68.7600   89.7710 C.2    40  TRP40       0.2264
     42  O         48.2680   69.8460   89.8610 O.2    40  TRP40      -0.2867
     43  CB        46.5450   68.1760   91.8300 C.3    40  TRP40       0.0550
     44  CG        45.3350   67.8130   92.6080 C.ar   40  TRP40       0.0003
     45  CD1       44.0420   68.1290   92.3280 C.ar   40  TRP40       0.0946
     46  CD2       45.3140   67.0620   93.8140 C.ar   40  TRP40       0.0152
     47  NE1       43.2170   67.6150   93.2660 N.ar   40  TRP40      -0.2442
     48  CE2       43.9770   66.9350   94.1890 C.ar   40  TRP40       0.0810
     49  CE3       46.3230   66.4390   94.6060 C.ar   40  TRP40       0.0012
     50  CZ2       43.5880   66.2490   95.3480 C.ar   40  TRP40       0.0191
     51  CZ3       45.9380   65.7450   95.7180 C.ar   40  TRP40       0.0001
     52  CH2       44.5720   65.6560   96.0880 C.ar   40  TRP40       0.0015
     53  N         50.4850   70.8200   92.0200 N.3    64  LEU64      -0.1245
     54  CA        51.0190   69.8850   93.0260 C.3    64  LEU64       0.1561
     55  C         52.5050   70.1660   93.2260 C.2    64  LEU64       0.2260
     56  O         52.9420   70.3720   94.3360 O.2    64  LEU64      -0.2867
     57  CB        50.7610   68.4150   92.6540 C.3    64  LEU64       0.0270
     58  CG        51.2140   67.3490   93.6610 C.3    64  LEU64       0.0019
     59  CD1       50.4490   67.3980   95.0160 C.3    64  LEU64       0.0001
     60  CD2       51.1610   65.9680   93.0590 C.3    64  LEU64       0.0001
     61  N         53.1790   73.6990   94.9250 N.3    67  MET67      -0.1230
     62  CA        52.9980   73.5880   96.3650 C.3    67  MET67       0.1702
     63  C         54.2250   72.9340   97.0670 C.2    67  MET67       0.2592
     64  O         54.6360   73.3680   98.1410 O.2    67  MET67      -0.2718
     65  CB        51.7600   72.7440   96.6130 C.3    67  MET67       0.0401
     66  CG        51.2550   72.7020   98.0560 C.3    67  MET67       0.0596
     67  SD        51.8190   71.2200   98.9080 S.3    67  MET67      -0.1393
     68  CE        51.2660   69.8080   97.9140 C.3    67  MET67       0.0692
     69  N         54.7730   71.8810   96.4690 N.am   68  TYR68      -0.1976
     70  CA        55.9000   71.1890   97.0390 C.3    68  TYR68       0.1639
     71  C         57.1410   72.0530   96.9630 C.2    68  TYR68       0.2290
     72  O         57.9030   72.0770   97.9150 O.2    68  TYR68      -0.2864
     73  CB        56.1290   69.8240   96.3730 C.3    68  TYR68       0.0560
     74  CG        55.2310   68.7430   96.9360 C.ar   68  TYR68      -0.0198
     75  CD1       54.6630   67.7720   96.1210 C.ar   68  TYR68      -0.0009
     76  CD2       54.9350   68.7060   98.3050 C.ar   68  TYR68      -0.0009
     77  CE1       53.8320   66.7630   96.6810 C.ar   68  TYR68       0.0417
     78  CE2       54.1320   67.7230   98.8440 C.ar   68  TYR68       0.0417
     79  CZ        53.5800   66.7660   98.0410 C.ar   68  TYR68       0.1957
     80  OH        52.7560   65.8110   98.6300 O.3    68  TYR68      -0.2866
     81  N         46.7290   75.5040   96.1950 N.3    78  PHE78      -0.1227
     82  CA        46.6660   74.0710   96.0540 C.3    78  PHE78       0.1736
     83  C         45.4820   73.5030   96.8820 C.2    78  PHE78       0.2595
     84  O         44.6390   72.7760   96.3660 O.2    78  PHE78      -0.2718
     85  CB        48.0370   73.4090   96.4110 C.3    78  PHE78       0.0547
     86  CG        47.9490   71.9090   96.4590 C.ar   78  PHE78      -0.0202
     87  CD1       48.1110   71.1600   95.2970 C.ar   78  PHE78      -0.0042
     88  CD2       47.5910   71.2660   97.6310 C.ar   78  PHE78      -0.0042
     89  CE1       47.9510   69.8050   95.3300 C.ar   78  PHE78      -0.0003
     90  CE2       47.4280   69.9150   97.6740 C.ar   78  PHE78      -0.0003
     91  CZ        47.6230   69.1710   96.5200 C.ar   78  PHE78      -0.0000
     92  N         45.3660   73.8750   98.1540 N.am   79  GLN79      -0.1979
     93  CA        44.3440   73.2410   98.9940 C.3    79  GLN79       0.1601
     94  C         42.9040   73.5610   98.5610 C.2    79  GLN79       0.2287
     95  O         41.9810   72.7270   98.6590 O.2    79  GLN79      -0.2864
     96  CB        44.5490   73.6500  100.4810 C.3    79  GLN79       0.0394
     97  CG        45.7790   73.0570  101.1650 C.3    79  GLN79       0.0908
     98  CD        45.7430   71.5460  101.1980 C.2    79  GLN79       0.2608
     99  OE1       44.7000   70.9550  101.3220 O.2    79  GLN79      -0.2717
    100  NE2       46.8890   70.9250  101.0320 N.am   79  GLN79      -0.0878
    101  N         42.4040   71.4190   95.5900 N.3    82  ALA82      -0.1245
    102  CA        42.4040   69.9980   96.0110 C.3    82  ALA82       0.1562
    103  C         41.0150   69.6230   96.5290 C.2    82  ALA82       0.2260
    104  O         40.4640   68.5830   96.1370 O.2    82  ALA82      -0.2867
    105  CB        43.4820   69.7280   97.0500 C.3    82  ALA82       0.0290
    106  N         37.8280   67.3120   94.5680 N.3    86  ARG86      -0.1245
    107  CA        37.3830   66.1360   95.3310 C.3    86  ARG86       0.1563
    108  C         35.8980   66.1460   95.5070 C.2    86  ARG86       0.2260
    109  O         35.2350   65.1390   95.2360 O.2    86  ARG86      -0.2867
    110  CB        38.0520   66.1170   96.7270 C.3    86  ARG86       0.0307
    111  CG        37.5750   64.9320   97.5980 C.3    86  ARG86       0.0489
    112  CD        38.2230   64.8240   99.0170 C.3    86  ARG86       0.2205
    113  NE        39.6490   65.1710   99.1370 N.pl3  86  ARG86      -0.0865
    114  CZ        40.6900   64.4060   98.8130 C.cat  86  ARG86       0.5346
    115  NH1       40.5180   63.2320   98.2340 N.pl3  86  ARG86       0.1354
    116  NH2       41.9310   64.8550   99.0340 N.pl3  86  ARG86       0.1354
    117  N         40.2170   59.2960  100.7420 N.3   110  ARG110     -0.1245
    118  CA        40.2560   60.5020  101.5480 C.3   110  ARG110      0.1563
    119  C         38.9540   61.2390  101.4470 C.2   110  ARG110      0.2260
    120  O         38.0700   60.8530  100.6510 O.2   110  ARG110     -0.2867
    121  CB        41.4170   61.3950  101.1320 C.3   110  ARG110      0.0307
    122  CG        42.7250   60.8100  101.5590 C.3   110  ARG110      0.0489
    123  CD        43.7750   61.8750  101.8020 C.3   110  ARG110      0.2205
    124  NE        45.0640   61.2460  102.1050 N.pl3 110  ARG110     -0.0865
    125  CZ        46.1050   61.2160  101.2660 C.cat 110  ARG110      0.5346
    126  NH1       46.0090   61.7930  100.0590 N.pl3 110  ARG110      0.1354
    127  NH2       47.2470   60.5990  101.6220 N.pl3 110  ARG110      0.1354
    128  N         41.2770   66.7870  103.9910 N.3   115  ASP115     -0.1239
    129  CA        41.7730   67.9500  103.2720 C.3   115  ASP115      0.1674
    130  C         42.0590   69.0980  104.2730 C.2   115  ASP115      0.2266
    131  O         43.1240   69.6830  104.2650 O.2   115  ASP115     -0.2867
    132  CB        40.7260   68.4310  102.2450 C.3   115  ASP115      0.1410
    133  CG        40.6650   67.5590  100.9670 C.2   115  ASP115      0.3668
    134  OD1       41.7100   66.9690  100.5690 O.co2 115  ASP115     -0.2456
    135  OD2       39.5630   67.5250  100.3100 O.co2 115  ASP115     -0.2456
    136  N         45.7100   67.9130  106.0150 N.3   119  PHE119     -0.1241
    137  CA        46.6350   68.5780  105.1140 C.3   119  PHE119      0.1605
    138  C         46.6550   70.1120  105.2770 C.2   119  PHE119      0.2264
    139  O         47.7440   70.6990  105.4400 O.2   119  PHE119     -0.2867
    140  CB        46.4020   68.1450  103.6590 C.3   119  PHE119      0.0534
    141  CG        46.7290   66.6810  103.4330 C.ar  119  PHE119     -0.0203
    142  CD1       45.7500   65.7140  103.5970 C.ar  119  PHE119     -0.0042
    143  CD2       48.0460   66.2770  103.1680 C.ar  119  PHE119     -0.0042
    144  CE1       46.0450   64.3180  103.4570 C.ar  119  PHE119     -0.0003
    145  CE2       48.3540   64.8900  102.9940 C.ar  119  PHE119     -0.0003
    146  CZ        47.3260   63.9080  103.1640 C.ar  119  PHE119     -0.0000
    147  N         49.6550   72.6330  106.9250 N.3   123  LEU123     -0.1245
    148  CA        50.2500   73.7430  106.2060 C.3   123  LEU123      0.1561
    149  C         50.1460   75.0370  106.9920 C.2   123  LEU123      0.2260
    150  O         51.0900   75.7950  107.0510 O.2   123  LEU123     -0.2867
    151  CB        49.6280   73.9040  104.8170 C.3   123  LEU123      0.0270
    152  CG        50.0570   72.7490  103.9220 C.3   123  LEU123      0.0019
    153  CD1       49.1100   72.6320  102.7520 C.3   123  LEU123      0.0001
    154  CD2       51.5490   72.8240  103.4730 C.3   123  LEU123      0.0001
    155  N         56.5960   53.8480   94.1000 N.3   174  ARG174     -0.1245
    156  CA        55.5750   54.3410   93.1840 C.3   174  ARG174      0.1563
    157  C         56.2060   55.2500   92.1180 C.2   174  ARG174      0.2260
    158  O         55.9020   55.1310   90.9480 O.2   174  ARG174     -0.2867
    159  CB        54.4310   55.0170   93.9470 C.3   174  ARG174      0.0307
    160  CG        53.3810   55.6510   93.0170 C.3   174  ARG174      0.0489
    161  CD        52.2500   56.2720   93.7450 C.3   174  ARG174      0.2205
    162  NE        52.6550   57.2650   94.7330 N.pl3 174  ARG174     -0.0865
    163  CZ        51.8910   57.5880   95.7850 C.cat 174  ARG174      0.5346
    164  NH1       50.7270   56.9700   95.9800 N.pl3 174  ARG174      0.1354
    165  NH2       52.2760   58.5310   96.6370 N.pl3 174  ARG174      0.1354
    166  N         56.1880   58.7050   91.7230 N.3   176  ARG176     -0.1245
    167  CA        55.4730   59.9220   91.3150 C.3   176  ARG176      0.1563
    168  C         56.4540   61.0630   91.4580 C.2   176  ARG176      0.2260
    169  O         57.0610   61.3080   92.5240 O.2   176  ARG176     -0.2867
    170  CB        54.2000   60.1170   92.1590 C.3   176  ARG176      0.0307
    171  CG        53.1780   61.0950   91.5990 C.3   176  ARG176      0.0489
    172  CD        51.9970   61.2050   92.5660 C.3   176  ARG176      0.2205
    173  NE        51.0270   60.1180   92.3800 N.pl3 176  ARG176     -0.0865
    174  CZ        50.1990   59.6750   93.3280 C.cat 176  ARG176      0.5346
    175  NH1       50.2280   60.1970   94.5520 N.pl3 176  ARG176      0.1354
    176  NH2       49.3280   58.7060   93.0500 N.pl3 176  ARG176      0.1354
    177  N         56.7250   63.8640   94.1190 N.3   179  GLU179     -0.1245
    178  CA        56.8370   63.4540   95.5240 C.3   179  GLU179      0.1567
    179  C         58.2290   63.0230   95.9190 C.2   179  GLU179      0.2260
    180  O         58.4810   62.7090   97.1080 O.2   179  GLU179     -0.2867
    181  CB        55.8910   62.3000   95.8260 C.3   179  GLU179      0.0388
    182  CG        54.4030   62.6480   95.7260 C.3   179  GLU179      0.1160
    183  CD        53.5160   61.4180   95.8190 C.2   179  GLU179      0.3649
    184  OE1       54.0690   60.2620   95.7910 O.co2 179  GLU179     -0.2457
    185  OE2       52.2650   61.5970   95.9070 O.co2 179  GLU179     -0.2457
    186  N         58.2830   65.6070  106.9080 N.3   186  TYR186     -0.1241
    187  CA        56.9430   66.0290  106.4310 C.3   186  TYR186      0.1605
    188  C         55.9130   64.9200  106.6700 C.2   186  TYR186      0.2264
    189  O         54.8120   65.2080  107.1460 O.2   186  TYR186     -0.2867
    190  CB        56.9750   66.3980  104.9260 C.3   186  TYR186      0.0534
    191  CG        55.6300   66.8230  104.2880 C.ar  186  TYR186     -0.0201
    192  CD1       55.0740   68.0690  104.5600 C.ar  186  TYR186     -0.0009
    193  CD2       54.9810   66.0270  103.3510 C.ar  186  TYR186     -0.0009
    194  CE1       53.8670   68.4900  103.9590 C.ar  186  TYR186      0.0417
    195  CE2       53.7630   66.4490  102.7380 C.ar  186  TYR186      0.0417
    196  CZ        53.2260   67.6830  103.0530 C.ar  186  TYR186      0.1957
    197  OH        52.0170   68.1240  102.4850 O.3   186  TYR186     -0.2866
@<TRIPOS>BOND
     1    39    40    1
     2    41    42    2
     3    41    40    1
     4    40    43    1
     5    35    34    2
     6    34    33    1
     7   158   157    2
     8   167   168    1
     9   167   166    1
    10   167   170    1
    11   168   169    2
    12   171   170    1
    13   171   172    1
    14    37    36    1
    15    43    44    1
    16    53    54    1
    17    33    32    1
    18    33    36    1
    19   157   156    1
    20    45    44   ar
    21    45    47   ar
    22   173   172    1
    23   173   174    2
    24    44    46   ar
    25    57    54    1
    26    57    58    1
    27    36    38    1
    28    26    25    2
    29   160   161    1
    30   160   159    1
    31    54    55    1
    32   176   174    1
    33    60    58    1
    34   156   159    1
    35   156   155    1
    36    55    56    2
    37    47    48   ar
    38   174   175    1
    39    25    24    1
    40    58    59    1
    41   161   162    1
    42    46    48   ar
    43    46    49   ar
    44   177   178    1
    45    48    50   ar
    46    23    24    1
    47   106   107    1
    48    49    51   ar
    49   162   163    2
    50    24    27    1
    51    61    62    1
    52   109   108    2
    53    87    89   ar
    54    87    86   ar
    55    89    91   ar
    56   107   108    1
    57   107   110    1
    58    50    52   ar
    59   178   181    1
    60   178   179    1
    61   101   102    1
    62    51    52   ar
    63   182   183    1
    64   182   181    1
    65    27    28    1
    66   163   164    1
    67   163   165    1
    68   184   183   ar
    69   183   185   ar
    70   179   180    2
    71   102   103    1
    72   102   105    1
    73    82    81    1
    74    82    85    1
    75    82    83    1
    76    75    77   ar
    77    75    74   ar
    78   104   103    2
    79    28    29    1
    80    62    65    1
    81    62    63    1
    82    84    83    2
    83    73    74    1
    84    73    70    1
    85    85    86    1
    86    86    88   ar
    87    69    70    1
    88    69    63   am
    89    91    90   ar
    90    65    66    1
    91    77    79   ar
    92   110   111    1
    93    83    92   am
    94    74    76   ar
    95    71    70    1
    96    71    72    2
    97    63    64    2
    98    31    29   ar
    99    29    30   ar
   100   111   112    1
   101    88    90   ar
   102    68    67    1
   103    79    80    1
   104    79    78   ar
   105    66    67    1
   106    92    93    1
   107   115   114    1
   108    76    78   ar
   109    17    16    2
   110    94    95    2
   111    94    93    1
   112    16    15    1
   113   114   116    1
   114   114   113    2
   115    93    96    1
   116   112   113    1
   117    13    10    1
   118     7     5    1
   119    10     9    1
   120    10    11    1
   121    14    15    1
   122    15    18    1
   123   126   125    1
   124     9     3   am
   125   135   133   ar
   126    18    19    1
   127    96    97    1
   128   134   133   ar
   129   120   119    2
   130   117   118    1
   131    12    11    2
   132   133   132    1
   133   100    98   am
   134     5     6    1
   135     5     2    1
   136    22    21    1
   137   121   118    1
   138   121   122    1
   139     3     2    1
   140     3     4    2
   141    97    98    1
   142    98    99    2
   143    21    20    1
   144     8     6    1
   145   125   127    1
   146   125   124    2
   147     2     1    1
   148   119   118    1
   149   122   123    1
   150   123   124    1
   151    19    20    1
   152   132   129    1
   153   197   196    1
   154   195   196   ar
   155   195   193   ar
   156   153   152    1
   157   145   146   ar
   158   145   143   ar
   159   196   194   ar
   160   146   144   ar
   161   143   141   ar
   162   129   128    1
   163   129   130    1
   164   193   191   ar
   165   141   142   ar
   166   141   140    1
   167   144   142   ar
   168   154   152    1
   169   140   137    1
   170   152   151    1
   171   194   192   ar
   172   131   130    2
   173   191   192   ar
   174   191   190    1
   175   151   148    1
   176   190   187    1
   177   137   138    1
   178   137   136    1
   179   138   139    2
   180   148   147    1
   181   148   149    1
   182   187   188    1
   183   187   186    1
   184   188   189    2
   185   149   150    2
