@<TRIPOS>MOLECULE
tmp/2noxB00.pdb
 260 252 0 0 0
SMALL
GASTEIGER

@<TRIPOS>ATOM
      1  N         89.5240  127.7840   89.1740 N.3    39  PHE39      -0.1241
      2  CA        88.9980  129.1650   89.2290 C.3    39  PHE39       0.1605
      3  C         87.9850  129.3590   88.1130 C.2    39  PHE39       0.2264
      4  O         86.9000  129.8790   88.3310 O.2    39  PHE39      -0.2867
      5  CB        90.1500  130.1860   89.1250 C.3    39  PHE39       0.0534
      6  CG        89.7190  131.6350   89.3070 C.ar   39  PHE39      -0.0203
      7  CD1       89.2590  132.0940   90.5360 C.ar   39  PHE39      -0.0042
      8  CD2       89.7770  132.5300   88.2480 C.ar   39  PHE39      -0.0042
      9  CE1       88.8680  133.4270   90.7050 C.ar   39  PHE39      -0.0003
     10  CE2       89.3880  133.8470   88.3990 C.ar   39  PHE39      -0.0003
     11  CZ        88.9340  134.3080   89.6480 C.ar   39  PHE39      -0.0000
     12  N         84.6900  126.5600   88.3360 N.3    42  GLN42      -0.1231
     13  CA        83.8340  127.1080   89.3670 C.3    42  GLN42       0.1698
     14  C         82.8730  128.1830   88.8830 C.2    42  GLN42       0.2592
     15  O         81.6890  128.1290   89.1920 O.2    42  GLN42      -0.2718
     16  CB        84.6760  127.7450   90.4590 C.3    42  GLN42       0.0381
     17  CG        83.8260  128.1580   91.6790 C.3    42  GLN42       0.0905
     18  CD        83.6570  126.9990   92.6230 C.2    42  GLN42       0.2608
     19  OE1       84.4570  126.0790   92.5860 O.2    42  GLN42      -0.2717
     20  NE2       82.6380  127.0300   93.4670 N.am   42  GLN42      -0.0878
     21  N         83.3810  129.1910   88.1750 N.am   43  HIS43      -0.1976
     22  CA        82.5100  130.2680   87.6520 C.3    43  HIS43       0.1656
     23  C         81.5690  129.7380   86.5820 C.2    43  HIS43       0.2291
     24  O         80.3650  130.0100   86.6020 O.2    43  HIS43      -0.2864
     25  CB        83.3280  131.3940   87.0030 C.3    43  HIS43       0.0771
     26  CG        83.9930  132.3090   87.9720 C.ar   43  HIS43       0.0820
     27  ND1       85.2500  132.0620   88.4830 N.ar   43  HIS43      -0.2267
     28  CD2       83.5880  133.4890   88.5130 C.ar   43  HIS43       0.1154
     29  CE1       85.5920  133.0500   89.2950 C.ar   43  HIS43       0.1986
     30  NE2       84.6030  133.9300   89.3300 N.ar   43  HIS43      -0.2212
     31  N         78.6620  127.7280   87.7500 N.3    46  THR46      -0.1203
     32  CA        77.6940  128.5720   88.4160 C.3    46  THR46       0.1994
     33  C         76.8930  129.3690   87.3940 C.2    46  THR46       0.2617
     34  O         75.6680  129.5040   87.5060 O.2    46  THR46      -0.2717
     35  CB        78.3820  129.4610   89.4790 C.3    46  THR46       0.1784
     36  OG1       78.7710  128.6280   90.5810 O.3    46  THR46      -0.2211
     37  CG2       77.4470  130.5040   89.9890 C.3    46  THR46       0.0376
     38  N         77.5750  129.8640   86.3620 N.am   47  GLU47      -0.1979
     39  CA        76.8530  130.5340   85.2530 C.3    47  GLU47       0.1602
     40  C         75.8450  129.6290   84.5290 C.2    47  GLU47       0.2287
     41  O         74.7030  130.0350   84.2420 O.2    47  GLU47      -0.2864
     42  CB        77.8330  131.1940   84.2810 C.3    47  GLU47       0.0415
     43  CG        78.6120  132.3780   84.8900 C.3    47  GLU47       0.1163
     44  CD        77.7780  133.6400   84.9820 C.2    47  GLU47       0.3649
     45  OE1       76.7380  133.7260   84.2930 O.co2  47  GLU47      -0.2457
     46  OE2       78.1390  134.5500   85.7530 O.co2  47  GLU47      -0.2457
     47  N         72.9740  129.1710   86.7580 N.3    50  MET50      -0.1245
     48  CA        72.2720  130.4570   86.7610 C.3    50  MET50       0.1570
     49  C         71.3580  130.6880   85.5570 C.2    50  MET50       0.2261
     50  O         70.2960  131.2800   85.6840 O.2    50  MET50      -0.2867
     51  CB        73.2430  131.6080   86.9340 C.3    50  MET50       0.0387
     52  CG        73.5110  131.8940   88.3920 C.3    50  MET50       0.0595
     53  SD        74.4020  133.4420   88.6350 S.3    50  MET50      -0.1393
     54  CE        75.7200  133.3110   87.4440 C.3    50  MET50       0.0692
     55  N         80.7630  126.0990   96.8940 N.3    90  TRP90      -0.1241
     56  CA        81.8630  126.8440   97.5050 C.3    90  TRP90       0.1605
     57  C         82.8180  125.9130   98.2440 C.2    90  TRP90       0.2264
     58  O         83.9390  126.2780   98.5240 O.2    90  TRP90      -0.2867
     59  CB        81.3130  127.9340   98.4160 C.3    90  TRP90       0.0550
     60  CG        80.5400  129.0030   97.6610 C.ar   90  TRP90       0.0003
     61  CD1       79.1620  129.1750   97.6200 C.ar   90  TRP90       0.0946
     62  CD2       81.0940  130.0310   96.8360 C.ar   90  TRP90       0.0152
     63  NE1       78.8540  130.2500   96.8240 N.ar   90  TRP90      -0.2442
     64  CE2       80.0150  130.7960   96.3380 C.ar   90  TRP90       0.0810
     65  CE3       82.4090  130.4030   96.4950 C.ar   90  TRP90       0.0012
     66  CZ2       80.2070  131.9020   95.5030 C.ar   90  TRP90       0.0191
     67  CZ3       82.6010  131.5000   95.6720 C.ar   90  TRP90       0.0001
     68  CH2       81.5020  132.2330   95.1710 C.ar   90  TRP90       0.0015
     69  N         85.8150  125.4900   95.9190 N.3    93  LEU93      -0.1245
     70  CA        86.7180  126.5930   95.6880 C.3    93  LEU93       0.1561
     71  C         87.4750  126.8640   96.9550 C.2    93  LEU93       0.2260
     72  O         88.5770  127.4210   96.9060 O.2    93  LEU93      -0.2867
     73  CB        85.9560  127.8500   95.2520 C.3    93  LEU93       0.0270
     74  CG        86.8790  129.0480   94.9480 C.3    93  LEU93       0.0019
     75  CD1       87.7720  128.7910   93.7060 C.3    93  LEU93       0.0001
     76  CD2       86.0290  130.2660   94.7840 C.3    93  LEU93       0.0001
     77  N         91.1220  126.0370   97.3860 N.3    96  MET96      -0.1245
     78  CA        92.1850  126.8940   96.8530 C.3    96  MET96       0.1570
     79  C         92.8320  127.7530   97.9390 C.2    96  MET96       0.2261
     80  O         92.1560  128.5100   98.6520 O.2    96  MET96      -0.2867
     81  CB        91.6490  127.7950   95.7570 C.3    96  MET96       0.0387
     82  CG        92.7270  128.6450   95.1220 C.3    96  MET96       0.0595
     83  SD        92.0900  129.6060   93.7600 S.3    96  MET96      -0.1393
     84  CE        92.2830  128.4220   92.4380 C.3    96  MET96       0.0692
     85  N         96.2370  131.0630   94.6850 N.3   101  TYR101     -0.1241
     86  CA        95.6260  132.1790   94.0330 C.3   101  TYR101      0.1605
     87  C         96.6610  133.2180   93.6590 C.2   101  TYR101      0.2264
     88  O         96.6780  133.7140   92.5340 O.2   101  TYR101     -0.2867
     89  CB        94.6060  132.8370   94.9330 C.3   101  TYR101      0.0534
     90  CG        93.8900  133.9090   94.1960 C.ar  101  TYR101     -0.0201
     91  CD1       94.0590  135.2430   94.5500 C.ar  101  TYR101     -0.0009
     92  CD2       93.0680  133.5970   93.1080 C.ar  101  TYR101     -0.0009
     93  CE1       93.3980  136.2440   93.8700 C.ar  101  TYR101      0.0417
     94  CE2       92.3960  134.5940   92.4100 C.ar  101  TYR101      0.0417
     95  CZ        92.5680  135.9180   92.8000 C.ar  101  TYR101      0.1957
     96  OH        91.9280  136.9410   92.1430 O.3   101  TYR101     -0.2866
     97  N         85.4850  141.8510   87.0100 N.3   112  SER112     -0.1202
     98  CA        84.5540  141.9360   88.1320 C.3   112  SER112      0.2020
     99  C         83.3680  140.9720   87.9240 C.2   112  SER112      0.2619
    100  O         82.9130  140.7850   86.7950 O.2   112  SER112     -0.2717
    101  CB        84.0610  143.3900   88.2810 C.3   112  SER112      0.2103
    102  OG        83.2490  143.5840   89.4380 O.3   112  SER112     -0.2182
    103  N         82.8780  140.3520   88.9990 N.am  113  GLY113     -0.1942
    104  CA        81.6210  139.5740   88.9360 C.3   113  GLY113      0.2014
    105  C         80.3880  140.4650   88.7400 C.2   113  GLY113      0.2638
    106  O         79.3150  139.9750   88.3430 O.2   113  GLY113     -0.2714
    107  N         80.5530  141.7700   89.0230 N.am  114  PHE114     -0.1973
    108  CA        79.6140  142.8310   88.6310 C.3   114  PHE114      0.1639
    109  C         79.2710  142.6790   87.1730 C.2   114  PHE114      0.2290
    110  O         78.2410  143.1630   86.7270 O.2   114  PHE114     -0.2864
    111  CB        80.2520  144.2210   88.7180 C.3   114  PHE114      0.0560
    112  CG        80.3700  144.7870   90.1000 C.ar  114  PHE114     -0.0200
    113  CD1       81.2580  145.8350   90.3420 C.ar  114  PHE114     -0.0042
    114  CD2       79.6140  144.3120   91.1450 C.ar  114  PHE114     -0.0042
    115  CE1       81.3940  146.3930   91.6070 C.ar  114  PHE114     -0.0003
    116  CE2       79.7400  144.8620   92.4160 C.ar  114  PHE114     -0.0003
    117  CZ        80.6370  145.9000   92.6490 C.ar  114  PHE114     -0.0000
    118  N         78.7540  139.8860   85.5640 N.3   116  SER116     -0.1217
    119  CA        77.8360  138.7910   85.2490 C.3   116  SER116      0.1889
    120  C         76.4220  139.3330   85.0960 C.2   116  SER116      0.2288
    121  O         75.7850  139.7180   86.0920 O.2   116  SER116     -0.2866
    122  CB        77.8500  137.7290   86.3330 C.3   116  SER116      0.2089
    123  OG        76.7060  136.9010   86.2570 O.3   116  SER116     -0.2183
    124  N         73.6690  136.9790   86.7310 N.3   119  TYR119     -0.1227
    125  CA        73.4970  137.2360   88.1200 C.3   119  TYR119      0.1736
    126  C         72.6360  138.4980   88.3810 C.2   119  TYR119      0.2595
    127  O         71.7740  138.5030   89.2770 O.2   119  TYR119     -0.2718
    128  CB        74.8410  137.3730   88.7760 C.3   119  TYR119      0.0548
    129  CG        74.6770  137.6080   90.2410 C.ar  119  TYR119     -0.0200
    130  CD1       74.4750  136.5320   91.1270 C.ar  119  TYR119     -0.0009
    131  CD2       74.7170  138.8970   90.7540 C.ar  119  TYR119     -0.0009
    132  CE1       74.3280  136.7630   92.5090 C.ar  119  TYR119      0.0417
    133  CE2       74.5530  139.1240   92.1170 C.ar  119  TYR119      0.0417
    134  CZ        74.3530  138.0630   92.9830 C.ar  119  TYR119      0.1957
    135  OH        74.1950  138.3320   94.3220 O.3   119  TYR119     -0.2866
    136  N         72.8750  139.5590   87.6050 N.am  120  ARG120     -0.1980
    137  CA        72.0800  140.7770   87.7500 C.3   120  ARG120      0.1597
    138  C         70.6010  140.5590   87.3490 C.2   120  ARG120      0.2287
    139  O         69.6840  141.0790   87.9830 O.2   120  ARG120     -0.2864
    140  CB        72.7310  141.9590   86.9950 C.3   120  ARG120      0.0334
    141  CG        72.1970  143.3620   87.4480 C.3   120  ARG120      0.0492
    142  CD        72.3620  143.5850   88.9620 C.3   120  ARG120      0.2205
    143  NE        73.7070  143.1530   89.3220 N.pl3 120  ARG120     -0.0865
    144  CZ        74.1910  142.9940   90.5520 C.cat 120  ARG120      0.5346
    145  NH1       73.4620  143.2700   91.6440 N.pl3 120  ARG120      0.1354
    146  NH2       75.4460  142.5700   90.6720 N.pl3 120  ARG120      0.1354
    147  N         69.0670  139.0250   90.4330 N.3   123  GLU123     -0.1245
    148  CA        68.8120  139.9980   91.4600 C.3   123  GLU123      0.1567
    149  C         67.5290  140.7260   91.0910 C.2   123  GLU123      0.2260
    150  O         66.6190  140.8950   91.9140 O.2   123  GLU123     -0.2867
    151  CB        69.9720  140.9800   91.5680 C.3   123  GLU123      0.0388
    152  CG        71.2880  140.4250   92.2010 C.3   123  GLU123      0.1160
    153  CD        71.2320  140.3160   93.7360 C.2   123  GLU123      0.3649
    154  OE1       70.1210  140.1090   94.2970 O.co2 123  GLU123     -0.2457
    155  OE2       72.3000  140.4280   94.3850 O.co2 123  GLU123     -0.2457
    156  N         74.2400  131.7760   99.9130 N.3   224  TRP224     -0.1227
    157  CA        75.1800  131.9590   98.8070 C.3   224  TRP224      0.1737
    158  C         76.0260  133.2100   99.0180 C.2   224  TRP224      0.2595
    159  O         77.2650  133.1750   98.8700 O.2   224  TRP224     -0.2718
    160  CB        74.4090  132.0600   97.4740 C.3   224  TRP224      0.0564
    161  CG        75.2840  131.9890   96.2780 C.ar  224  TRP224      0.0003
    162  CD1       75.6690  130.8650   95.6180 C.ar  224  TRP224      0.0946
    163  CD2       75.9590  133.0840   95.6300 C.ar  224  TRP224      0.0152
    164  NE1       76.5100  131.1880   94.5650 N.ar  224  TRP224     -0.2442
    165  CE2       76.7070  132.5410   94.5540 C.ar  224  TRP224      0.0810
    166  CE3       75.9860  134.4650   95.8400 C.ar  224  TRP224      0.0012
    167  CZ2       77.4870  133.3360   93.6870 C.ar  224  TRP224      0.0191
    168  CZ3       76.7610  135.2610   94.9710 C.ar  224  TRP224      0.0001
    169  CH2       77.5020  134.6790   93.9020 C.ar  224  TRP224      0.0015
    170  N         75.3770  134.3270   99.3670 N.am  225  ARG225     -0.1980
    171  CA        76.1120  135.5860   99.6550 C.3   225  ARG225      0.1597
    172  C         77.1310  135.4160  100.7890 C.2   225  ARG225      0.2287
    173  O         78.2370  135.9330  100.6970 O.2   225  ARG225     -0.2864
    174  CB        75.1620  136.7450  100.0250 C.3   225  ARG225      0.0334
    175  CG        74.2860  137.2400   98.9030 C.3   225  ARG225      0.0492
    176  CD        73.4090  138.3580   99.4650 C.3   225  ARG225      0.2205
    177  NE        72.0690  138.2870   98.8880 N.pl3 225  ARG225     -0.0865
    178  CZ        71.7280  138.8470   97.7350 C.cat 225  ARG225      0.5346
    179  NH1       72.6010  139.5920   97.0730 N.pl3 225  ARG225      0.1354
    180  NH2       70.4970  138.6960   97.2720 N.pl3 225  ARG225      0.1354
    181  N         79.9930  133.1380   99.6330 N.3   228  HIS228     -0.1241
    182  CA        80.7910  133.9500   98.7080 C.3   228  HIS228      0.1621
    183  C         81.8160  134.8340   99.4690 C.2   228  HIS228      0.2264
    184  O         83.0150  134.7420   99.2140 O.2   228  HIS228     -0.2867
    185  CB        79.8710  134.7990   97.8000 C.3   228  HIS228      0.0745
    186  CG        80.5980  135.5550   96.7210 C.ar  228  HIS228      0.0817
    187  ND1       80.0840  136.6990   96.1410 N.ar  228  HIS228     -0.2268
    188  CD2       81.8010  135.3440   96.1270 C.ar  228  HIS228      0.1154
    189  CE1       80.9350  137.1560   95.2370 C.ar  228  HIS228      0.1986
    190  NE2       81.9870  136.3540   95.2110 N.ar  228  HIS228     -0.2212
    191  N         85.8150  134.1940   99.5620 N.3   232  VAL232     -0.1245
    192  CA        86.6750  135.2460   99.0150 C.3   232  VAL232      0.1561
    193  C         87.6680  135.7170  100.0880 C.2   232  VAL232      0.2260
    194  O         88.8760  135.8170   99.8590 O.2   232  VAL232     -0.2867
    195  CB        85.8370  136.4410   98.4520 C.3   232  VAL232      0.0252
    196  CG1       86.7360  137.5320   97.9400 C.3   232  VAL232      0.0019
    197  CG2       84.9510  135.9610   97.3120 C.3   232  VAL232      0.0019
    198  N         90.5770  133.4430  100.5530 N.3   235  VAL235     -0.1231
    199  CA        91.5580  133.3840   99.4600 C.3   235  VAL235      0.1692
    200  C         92.3880  134.6860   99.3710 C.2   235  VAL235      0.2591
    201  O         93.6250  134.6320   99.3310 O.2   235  VAL235     -0.2718
    202  CB        90.9240  132.9790   98.0830 C.3   235  VAL235      0.0266
    203  CG1       91.9910  132.9210   96.9710 C.3   235  VAL235      0.0020
    204  CG2       90.2320  131.6170   98.1790 C.3   235  VAL235      0.0020
    205  N         91.7210  135.8400   99.3860 N.am  236  ILE236     -0.1980
    206  CA        92.4230  137.1180   99.2600 C.3   236  ILE236      0.1595
    207  C         92.3510  137.9850  100.5180 C.2   236  ILE236      0.2287
    208  O         92.8780  139.0920  100.5570 O.2   236  ILE236     -0.2864
    209  CB        91.8760  137.9780   98.1050 C.3   236  ILE236      0.0276
    210  CG1       90.4300  138.4020   98.4260 C.3   236  ILE236      0.0022
    211  CG2       92.0460  137.2780   96.7590 C.3   236  ILE236      0.0022
    212  CD1       89.9120  139.6370   97.6610 C.3   236  ILE236      0.0001
    213  N         83.1250  148.2730   95.6110 N.3   242  GLU242     -0.1231
    214  CA        84.0760  147.1820   95.3820 C.3   242  GLU242      0.1699
    215  C         84.6970  146.6610   96.7100 C.2   242  GLU242      0.2593
    216  O         84.4590  147.2490   97.7730 O.2   242  GLU242     -0.2718
    217  CB        85.1500  147.6150   94.3680 C.3   242  GLU242      0.0402
    218  CG        86.0290  148.7660   94.8470 C.3   242  GLU242      0.1161
    219  CD        86.9730  149.3080   93.7740 C.2   242  GLU242      0.3649
    220  OE1       87.3050  148.5640   92.8230 O.co2 242  GLU242     -0.2457
    221  OE2       87.3900  150.4830   93.8940 O.co2 242  GLU242     -0.2457
    222  N         85.4650  145.5610   96.6410 N.am  243  GLY243     -0.1942
    223  CA        86.0890  144.9190   97.8230 C.3   243  GLY243      0.2014
    224  C         85.3070  143.8100   98.5560 C.2   243  GLY243      0.2638
    225  O         84.1190  143.5720   98.2930 O.2   243  GLY243     -0.2714
    226  N         85.9870  143.1180   99.4730 N.am  244  VAL244     -0.1977
    227  CA        85.3310  142.2850  100.4800 C.3   244  VAL244      0.1596
    228  C         84.3560  143.0900  101.3660 C.2   244  VAL244      0.2287
    229  O         83.3160  142.5660  101.8210 O.2   244  VAL244     -0.2864
    230  CB        86.3780  141.5190  101.3170 C.3   244  VAL244      0.0276
    231  CG1       85.7070  140.6320  102.3610 C.3   244  VAL244      0.0022
    232  CG2       87.2390  140.6730  100.3960 C.3   244  VAL244      0.0022
    233  N         82.4340  145.4730  100.2000 N.3   246  TYR246     -0.1227
    234  CA        81.2330  145.5280   99.3550 C.3   246  TYR246      0.1736
    235  C         80.3970  144.2560   99.5860 C.2   246  TYR246      0.2595
    236  O         79.1920  144.3200   99.8780 O.2   246  TYR246     -0.2718
    237  CB        81.5770  145.6860   97.8520 C.3   246  TYR246      0.0548
    238  CG        80.3440  145.5280   96.9480 C.ar  246  TYR246     -0.0200
    239  CD1       79.4310  146.5810   96.7600 C.ar  246  TYR246     -0.0009
    240  CD2       80.0820  144.3170   96.3100 C.ar  246  TYR246     -0.0009
    241  CE1       78.2740  146.4300   95.9500 C.ar  246  TYR246      0.0417
    242  CE2       78.9440  144.1480   95.5030 C.ar  246  TYR246      0.0417
    243  CZ        78.0330  145.2000   95.3280 C.ar  246  TYR246      0.1957
    244  OH        76.9070  144.9920   94.5200 O.3   246  TYR246     -0.2866
    245  N         81.0540  143.1010   99.4380 N.am  247  LEU247     -0.1980
    246  CA        80.4190  141.8020   99.6400 C.3   247  LEU247      0.1596
    247  C         79.8330  141.6380  101.0560 C.2   247  LEU247      0.2287
    248  O         78.7810  141.0400  101.2220 O.2   247  LEU247     -0.2864
    249  CB        81.3990  140.6770   99.3250 C.3   247  LEU247      0.0297
    250  CG        81.7470  140.5700   97.8440 C.3   247  LEU247      0.0022
    251  CD1       82.7370  139.4650   97.6270 C.3   247  LEU247      0.0001
    252  CD2       80.4840  140.3460   96.9880 C.3   247  LEU247      0.0001
    253  N         76.4670  143.2670  101.1820 N.3   250  MET250     -0.1245
    254  CA        75.4470  142.5510  100.3990 C.3   250  MET250      0.1570
    255  C         74.6670  141.6650  101.3150 C.2   250  MET250      0.2261
    256  O         73.5220  141.3810  101.0820 O.2   250  MET250     -0.2867
    257  CB        76.0610  141.7300   99.2640 C.3   250  MET250      0.0387
    258  CG        76.6950  142.5810   98.1810 C.3   250  MET250      0.0595
    259  SD        75.6000  143.9450   97.6800 S.3   250  MET250     -0.1393
    260  CE        76.0950  145.3490   98.6640 C.3   250  MET250      0.0692
@<TRIPOS>BOND
     1    41    40    2
     2    42    43    1
     3    42    39    1
     4    45    44   ar
     5    40    39    1
     6    43    44    1
     7    44    46   ar
     8   120   119    1
     9   120   121    2
    10   119   118    1
    11   119   122    1
    12    39    38    1
    13    49    50    2
    14    49    48    1
    15   123   122    1
    16    38    33   am
    17    23    24    2
    18    23    22    1
    19   110   109    2
    20   124   125    1
    21    47    48    1
    22    48    51    1
    23   100    99    2
    24    51    52    1
    25   140   141    1
    26   140   137    1
    27    25    22    1
    28    25    26    1
    29    97    98    1
    30   109   108    1
    31   138   137    1
    32   138   139    2
    33    33    34    2
    34    33    32    1
    35    54    53    1
    36   141   142    1
    37   136   137    1
    38   136   126   am
    39    22    21    1
    40    31    32    1
    41    99    98    1
    42    99   103   am
    43    26    27   ar
    44    26    28   ar
    45     3     4    2
    46     3     2    1
    47   125   126    1
    48   125   128    1
    49    98   101    1
    50    21    14   am
    51     8    10   ar
    52     8     6   ar
    53   101   102    1
    54    12    13    1
    55   106   105    2
    56   126   127    2
    57    52    53    1
    58    10    11   ar
    59    32    35    1
    60    27    29   ar
    61    28    30   ar
    62   108   111    1
    63   108   107    1
    64   111   112    1
    65   105   104    1
    66   105   107   am
    67   128   129    1
    68    14    15    2
    69    14    13    1
    70   104   103    1
    71   142   143    1
    72     5     2    1
    73     5     6    1
    74     1     2    1
    75    29    30   ar
    76     6     7   ar
    77   143   144    2
    78    13    16    1
    79    35    37    1
    80    35    36    1
    81    11     9   ar
    82   112   113   ar
    83   112   114   ar
    84   129   131   ar
    85   129   130   ar
    86   113   115   ar
    87   147   148    1
    88    16    17    1
    89     7     9   ar
    90   144   146    1
    91   144   145    1
    92   131   133   ar
    93   149   148    1
    94   149   150    2
    95   130   132   ar
    96   114   116   ar
    97   148   151    1
    98   151   152    1
    99   115   117   ar
   100    17    18    1
   101   133   134   ar
   102    96    95    1
   103   152   153    1
   104    94    95   ar
   105    94    92   ar
   106   116   117   ar
   107    84    83    1
   108   132   134   ar
   109    88    87    2
   110    19    18    2
   111    18    20   am
   112    95    93   ar
   113   220   219   ar
   114   134   135    1
   115    92    90   ar
   116    87    86    1
   117   167   169   ar
   118   167   165   ar
   119    75    74    1
   120   153   154   ar
   121   153   155   ar
   122    83    82    1
   123   219   221   ar
   124   219   218    1
   125    93    91   ar
   126   169   168   ar
   127    86    85    1
   128    86    89    1
   129    90    91   ar
   130    90    89    1
   131   217   218    1
   132   217   214    1
   133   244   243    1
   134   165   164   ar
   135   165   163   ar
   136   164   162   ar
   137    76    74    1
   138    74    73    1
   139   168   166   ar
   140    82    81    1
   141    68    66   ar
   142    68    67   ar
   143   190   189   ar
   144   190   188   ar
   145   189   187   ar
   146    73    70    1
   147   243   242   ar
   148   243   241   ar
   149   214   213    1
   150   214   215    1
   151   242   240   ar
   152    66    64   ar
   153   162   161   ar
   154   163   166   ar
   155   163   161   ar
   156    67    65   ar
   157    70    69    1
   158    70    71    1
   159    81    78    1
   160   241   239   ar
   161   188   186   ar
   162   187   186   ar
   163   161   160    1
   164   240   238   ar
   165    64    63   ar
   166    64    62   ar
   167    65    62   ar
   168   222   215   am
   169   222   223    1
   170   215   216    2
   171   186   185    1
   172   211   209    1
   173   239   238   ar
   174    63    61   ar
   175    62    60   ar
   176    78    77    1
   177    78    79    1
   178    55    56    1
   179    72    71    2
   180   238   237    1
   181   203   202    1
   182   252   250    1
   183   179   178    1
   184   180   178    1
   185   197   195    1
   186   160   157    1
   187    56    57    1
   188    56    59    1
   189    61    60   ar
   190   251   250    1
   191   212   210    1
   192    60    59    1
   193   259   258    1
   194   259   260    1
   195   178   177    2
   196   185   182    1
   197   223   224    1
   198   250   249    1
   199   237   234    1
   200    79    80    2
   201   196   195    1
   202   202   204    1
   203   202   199    1
   204   209   210    1
   205   209   206    1
   206   258   257    1
   207    57    58    2
   208   225   224    2
   209   195   192    1
   210   224   226   am
   211   182   183    1
   212   182   181    1
   213   157   158    1
   214   157   156    1
   215   159   158    2
   216   177   176    1
   217   175   176    1
   218   175   174    1
   219   192   191    1
   220   192   193    1
   221   158   170   am
   222   184   183    2
   223   206   205    1
   224   206   207    1
   225   257   254    1
   226   249   246    1
   227   201   200    2
   228   234   235    1
   229   234   233    1
   230   170   171    1
   231   200   205   am
   232   200   199    1
   233   245   235   am
   234   245   246    1
   235   199   198    1
   236   226   227    1
   237   235   236    2
   238   246   247    1
   239   171   174    1
   240   171   172    1
   241   194   193    2
   242   232   230    1
   243   254   253    1
   244   254   255    1
   245   227   230    1
   246   227   228    1
   247   207   208    2
   248   173   172    2
   249   247   248    2
   250   256   255    2
   251   230   231    1
   252   228   229    2
