@<TRIPOS>MOLECULE
tmp/2np5B00.pdb
 151 138 0 0 0
SMALL
GASTEIGER

@<TRIPOS>ATOM
      1  N         11.7270  -32.0090  -43.1500 N.3    53  ARG53      -0.1245
      2  CA        10.8070  -32.1710  -44.2990 C.3    53  ARG53       0.1563
      3  C          9.6020  -33.0360  -43.8850 C.2    53  ARG53       0.2260
      4  O          8.4450  -32.7630  -44.2600 O.2    53  ARG53      -0.2867
      5  CB        11.5550  -32.7620  -45.4790 C.3    53  ARG53       0.0307
      6  CG        12.4990  -31.7990  -46.1360 C.3    53  ARG53       0.0489
      7  CD        13.3050  -32.5090  -47.2330 C.3    53  ARG53       0.2205
      8  NE        12.3760  -33.0490  -48.2360 N.pl3  53  ARG53      -0.0865
      9  CZ        12.3540  -34.3120  -48.6700 C.cat  53  ARG53       0.5346
     10  NH1       13.2520  -35.2060  -48.2540 N.pl3  53  ARG53       0.1354
     11  NH2       11.4450  -34.6940  -49.5820 N.pl3  53  ARG53       0.1354
     12  N          7.3070  -30.7920  -41.5930 N.3    56  VAL56      -0.1231
     13  CA         6.5740  -29.7210  -42.3070 C.3    56  VAL56       0.1692
     14  C          5.4930  -30.3690  -43.2460 C.2    56  VAL56       0.2592
     15  O          4.4070  -29.8130  -43.3900 O.2    56  VAL56      -0.2718
     16  CB         7.5090  -28.7370  -43.0550 C.3    56  VAL56       0.0266
     17  CG1        8.5270  -28.1020  -42.1020 C.3    56  VAL56       0.0020
     18  CG2        8.2640  -29.4450  -44.1620 C.3    56  VAL56       0.0020
     19  N          5.7640  -31.5550  -43.8150 N.am   57  ASP57      -0.1974
     20  CA         4.7540  -32.2800  -44.6340 C.3    57  ASP57       0.1709
     21  C          3.5050  -32.5890  -43.7920 C.2    57  ASP57       0.2293
     22  O          2.3770  -32.3890  -44.2420 O.2    57  ASP57      -0.2864
     23  CB         5.3300  -33.5710  -45.2190 C.3    57  ASP57       0.1436
     24  CG         4.2610  -34.4320  -45.8820 C.2    57  ASP57       0.3671
     25  OD1        3.8990  -34.1460  -47.0400 O.co2  57  ASP57      -0.2456
     26  OD2        3.7790  -35.3900  -45.2230 O.co2  57  ASP57      -0.2456
     27  N          1.6800  -29.1530  -43.0640 N.3    60  LEU60      -0.1245
     28  CA         1.0200  -28.7450  -44.3040 C.3    60  LEU60       0.1561
     29  C         -0.1770  -29.6140  -44.6530 C.2    60  LEU60       0.2260
     30  O         -1.1830  -29.1120  -45.1330 O.2    60  LEU60      -0.2867
     31  CB         1.9970  -28.6900  -45.4740 C.3    60  LEU60       0.0270
     32  CG         3.0360  -27.5640  -45.3950 C.3    60  LEU60       0.0019
     33  CD1        3.9310  -27.6750  -46.5900 C.3    60  LEU60       0.0001
     34  CD2        2.3950  -26.1950  -45.2990 C.3    60  LEU60       0.0001
     35  N         -3.0080  -28.3380  -42.5240 N.3    63  LEU63      -0.1231
     36  CA        -3.5250  -27.0790  -43.0410 C.3    63  LEU63       0.1693
     37  C         -4.3640  -27.3250  -44.2900 C.2    63  LEU63       0.2592
     38  O         -5.3410  -26.6280  -44.4820 O.2    63  LEU63      -0.2718
     39  CB        -2.3620  -26.1740  -43.4110 C.3    63  LEU63       0.0284
     40  CG        -1.5720  -25.7140  -42.1940 C.3    63  LEU63       0.0019
     41  CD1       -0.4180  -24.7160  -42.6250 C.3    63  LEU63       0.0001
     42  CD2       -2.4450  -25.0130  -41.1700 C.3    63  LEU63       0.0001
     43  N         -3.9740  -28.3080  -45.1110 N.am   64  SER64      -0.1952
     44  CA        -4.7430  -28.7070  -46.3020 C.3    64  SER64       0.1924
     45  C         -6.1290  -29.2010  -45.9830 C.2    64  SER64       0.2314
     46  O         -7.0210  -29.0790  -46.8400 O.2    64  SER64      -0.2863
     47  CB        -4.0720  -29.8540  -47.1050 C.3    64  SER64       0.2116
     48  OG        -2.8180  -29.4010  -47.5670 O.3    64  SER64      -0.2180
     49  N         -8.1330  -28.2460  -43.6250 N.3    66  VAL66      -0.1245
     50  CA        -9.0320  -27.2420  -43.0660 C.3    66  VAL66       0.1561
     51  C        -10.2060  -26.9770  -44.0230 C.2    66  VAL66       0.2260
     52  O         -9.9890  -26.7480  -45.2270 O.2    66  VAL66      -0.2867
     53  CB        -8.2580  -25.9410  -42.7320 C.3    66  VAL66       0.0252
     54  CG1       -9.2070  -24.8040  -42.3400 C.3    66  VAL66       0.0019
     55  CG2       -7.2190  -26.2280  -41.5690 C.3    66  VAL66       0.0019
     56  N        -12.6200  -24.7760  -45.5770 N.3    68  ARG68      -0.1245
     57  CA       -12.5720  -23.3150  -45.7020 C.3    68  ARG68       0.1563
     58  C        -13.9580  -22.6840  -45.7010 C.2    68  ARG68       0.2260
     59  O        -14.1300  -21.5630  -45.1890 O.2    68  ARG68      -0.2867
     60  CB       -11.7450  -22.9080  -46.9180 C.3    68  ARG68       0.0307
     61  CG       -10.2510  -23.0380  -46.6340 C.3    68  ARG68       0.0489
     62  CD        -9.4280  -22.3380  -47.6920 C.3    68  ARG68       0.2205
     63  NE        -8.0290  -22.7650  -47.6920 N.pl3  68  ARG68      -0.0865
     64  CZ        -7.0870  -22.2400  -48.4750 C.cat  68  ARG68       0.5346
     65  NH1       -7.3940  -21.2880  -49.3470 N.pl3  68  ARG68       0.1354
     66  NH2       -5.8230  -22.6600  -48.3950 N.pl3  68  ARG68       0.1354
     67  N        -12.0540  -20.0270  -40.7740 N.3    75  ALA75      -0.1231
     68  CA       -11.0220  -20.7810  -41.4940 C.3    75  ALA75       0.1694
     69  C         -9.6150  -20.4280  -41.0160 C.2    75  ALA75       0.2591
     70  O         -8.7800  -21.3040  -40.7900 O.2    75  ALA75      -0.2718
     71  CB       -11.1120  -20.5030  -42.9670 C.3    75  ALA75       0.0304
     72  N         -9.3560  -19.1330  -40.8840 N.am   76  LEU76      -0.1980
     73  CA        -8.0430  -18.6680  -40.4300 C.3    76  LEU76       0.1596
     74  C         -7.7530  -19.2020  -39.0420 C.2    76  LEU76       0.2287
     75  O         -6.6290  -19.6060  -38.7420 O.2    76  LEU76      -0.2864
     76  CB        -8.0200  -17.1440  -40.4260 C.3    76  LEU76       0.0297
     77  CG        -8.0010  -16.5140  -41.8240 C.3    76  LEU76       0.0022
     78  CD1       -8.2250  -14.9940  -41.7180 C.3    76  LEU76       0.0001
     79  CD2       -6.6970  -16.7930  -42.5340 C.3    76  LEU76       0.0001
     80  N         -7.0210  -22.9880  -39.1350 N.3    79  ALA79      -0.1245
     81  CA        -5.7060  -23.2760  -39.7200 C.3    79  ALA79       0.1562
     82  C         -4.5880  -22.8930  -38.7470 C.2    79  ALA79       0.2260
     83  O         -3.7020  -23.6970  -38.4490 O.2    79  ALA79      -0.2867
     84  CB        -5.5230  -22.5030  -41.0070 C.3    79  ALA79       0.0290
     85  N         16.4410  -23.4340  -46.1840 N.3   110  GLU110     -0.1231
     86  CA        15.6920  -23.5930  -47.4340 C.3   110  GLU110      0.1699
     87  C         14.3320  -24.2250  -47.1740 C.2   110  GLU110      0.2592
     88  O         13.3270  -23.8200  -47.7420 O.2   110  GLU110     -0.2718
     89  CB        16.5020  -24.4500  -48.4260 C.3   110  GLU110      0.0402
     90  CG        15.7180  -24.9140  -49.7020 C.3   110  GLU110      0.1161
     91  CD        15.2290  -23.7910  -50.6310 C.2   110  GLU110      0.3649
     92  OE1       15.4990  -22.5710  -50.4100 O.co2 110  GLU110     -0.2457
     93  OE2       14.5490  -24.1510  -51.6160 O.co2 110  GLU110     -0.2457
     94  N         14.3150  -25.2960  -46.3820 N.am  111  ILE111     -0.1980
     95  CA        13.0690  -26.0210  -46.1080 C.3   111  ILE111      0.1595
     96  C         12.1140  -25.0920  -45.3810 C.2   111  ILE111      0.2287
     97  O         10.9420  -25.0200  -45.7340 O.2   111  ILE111     -0.2864
     98  CB        13.3360  -27.2990  -45.2890 C.3   111  ILE111      0.0276
     99  CG1       14.0930  -28.3190  -46.1720 C.3   111  ILE111      0.0022
    100  CG2       11.9970  -27.9650  -44.8250 C.3   111  ILE111      0.0022
    101  CD1       14.9360  -29.3310  -45.2700 C.3   111  ILE111      0.0001
    102  N         10.7060  -22.3300  -47.8150 N.3   114  LYS114     -0.1231
    103  CA         9.6340  -22.8180  -48.7200 C.3   114  LYS114      0.1693
    104  C          8.3430  -23.0360  -47.9300 C.2   114  LYS114      0.2592
    105  O          7.2560  -22.7420  -48.4240 O.2   114  LYS114     -0.2718
    106  CB        10.0380  -24.1320  -49.3090 C.3   114  LYS114      0.0285
    107  CG         9.1480  -24.5480  -50.4900 C.3   114  LYS114      0.0035
    108  CD         9.5800  -25.8760  -51.0700 C.3   114  LYS114      0.0206
    109  CE        10.9350  -25.7870  -51.7100 C.3   114  LYS114      0.1093
    110  NZ        11.2750  -27.1770  -52.0590 N.3   114  LYS114     -0.1314
    111  N          8.4610  -23.5840  -46.7250 N.am  115  THR115     -0.1953
    112  CA         7.3040  -23.8440  -45.8580 C.3   115  THR115      0.1897
    113  C          6.5770  -22.5090  -45.5590 C.2   115  THR115      0.2313
    114  O          5.3230  -22.3880  -45.7570 O.2   115  THR115     -0.2863
    115  CB         7.7110  -24.5560  -44.5560 C.3   115  THR115      0.1794
    116  OG1        8.3330  -25.8030  -44.8810 O.3   115  THR115     -0.2208
    117  CG2        6.4610  -24.8540  -43.7170 C.3   115  THR115      0.0378
    118  N          4.9090  -21.0520  -48.6320 N.3   118  THR118     -0.1203
    119  CA         3.7040  -21.8040  -48.9540 C.3   118  THR118      0.1994
    120  C          2.5540  -21.3450  -48.0790 C.2   118  THR118      0.2617
    121  O          1.4190  -21.1250  -48.5730 O.2   118  THR118     -0.2717
    122  CB         3.9690  -23.3520  -48.7850 C.3   118  THR118      0.1784
    123  OG1        4.8720  -23.7860  -49.8160 O.3   118  THR118     -0.2211
    124  CG2        2.6700  -24.1610  -48.9180 C.3   118  THR118      0.0376
    125  N          2.8210  -21.2240  -46.7800 N.am  119  ILE119     -0.1979
    126  CA         1.7270  -20.8850  -45.8390 C.3   119  ILE119      0.1595
    127  C          1.3090  -19.4160  -46.0590 C.2   119  ILE119      0.2287
    128  O          0.1130  -19.1150  -46.1340 O.2   119  ILE119     -0.2864
    129  CB         2.1250  -21.1250  -44.3510 C.3   119  ILE119      0.0276
    130  CG1        2.3580  -22.6340  -44.0610 C.3   119  ILE119      0.0022
    131  CG2        1.0090  -20.5720  -43.3990 C.3   119  ILE119      0.0022
    132  CD1        3.1950  -22.8540  -42.7540 C.3   119  ILE119      0.0001
    133  N         -0.9250  -19.1430  -49.0800 N.3   122  GLY122     -0.1210
    134  CA        -2.3150  -19.5310  -48.7780 C.3   122  GLY122      0.1956
    135  C         -3.0380  -18.4470  -47.9780 C.2   122  GLY122      0.2611
    136  O         -4.2300  -18.1280  -48.2640 O.2   122  GLY122     -0.2717
    137  N         -2.3610  -17.9260  -46.9360 N.am  123  LEU123     -0.1979
    138  CA        -2.9870  -16.9010  -46.0980 C.3   123  LEU123      0.1596
    139  C         -3.2520  -15.6250  -46.8960 C.2   123  LEU123      0.2287
    140  O         -4.2910  -15.0350  -46.7360 O.2   123  LEU123     -0.2864
    141  CB        -2.0880  -16.5280  -44.9190 C.3   123  LEU123      0.0297
    142  CG        -1.8810  -17.6010  -43.8780 C.3   123  LEU123      0.0022
    143  CD1       -0.7610  -17.2180  -42.9330 C.3   123  LEU123      0.0001
    144  CD2       -3.2140  -17.8650  -43.1040 C.3   123  LEU123      0.0001
    145  N         -6.3760  -16.0400  -49.0600 N.3   126  VAL126     -0.1245
    146  CA        -7.5750  -15.8650  -48.2360 C.3   126  VAL126      0.1561
    147  C         -7.8540  -14.3430  -48.0340 C.2   126  VAL126      0.2260
    148  O         -8.9710  -13.8610  -48.2480 O.2   126  VAL126     -0.2867
    149  CB        -7.4260  -16.6250  -46.8940 C.3   126  VAL126      0.0252
    150  CG1       -8.5650  -16.2690  -45.9190 C.3   126  VAL126      0.0019
    151  CG2       -7.4290  -18.2130  -47.1680 C.3   126  VAL126      0.0019
@<TRIPOS>BOND
     1   110   109    1
     2   109   108    1
     3    93    91   ar
     4   108   107    1
     5    91    92   ar
     6    91    90    1
     7   107   106    1
     8   123   122    1
     9    90    89    1
    10    11     9    1
    11    65    64    1
    12   106   103    1
    13   133   134    1
    14   145   146    1
    15   119   122    1
    16   119   118    1
    17   119   120    1
    18   124   122    1
    19   134   135    1
    20   103   104    1
    21   103   102    1
    22     9    10    1
    23     9     8    2
    24   121   120    2
    25    64    66    1
    26    64    63    2
    27    89    86    1
    28   105   104    2
    29   136   135    2
    30   148   147    2
    31   146   147    1
    32   146   149    1
    33     8     7    1
    34   120   125   am
    35   135   137   am
    36   104   111   am
    37    88    87    2
    38    63    62    1
    39    62    61    1
    40    48    47    1
    41    86    87    1
    42    86    85    1
    43     7     6    1
    44    87    94   am
    45   151   149    1
    46    47    44    1
    47    25    24   ar
    48   137   138    1
    49    60    61    1
    50    60    57    1
    51   139   140    2
    52   139   138    1
    53   149   150    1
    54    46    45    2
    55   125   126    1
    56   111   112    1
    57    33    32    1
    58    94    95    1
    59    44    45    1
    60    44    43    1
    61    99    98    1
    62    99   101    1
    63     6     5    1
    64   128   127    2
    65    95    96    1
    66    95    98    1
    67   138   141    1
    68   127   126    1
    69    24    26   ar
    70    24    23    1
    71   112   113    1
    72   112   115    1
    73   126   129    1
    74   114   113    2
    75    97    96    2
    76    57    58    1
    77    57    56    1
    78    58    59    2
    79     5     2    1
    80    31    32    1
    81    31    28    1
    82    32    34    1
    83    98   100    1
    84    52    51    2
    85    23    20    1
    86    30    29    2
    87    43    37   am
    88   141   142    1
    89   116   115    1
    90    29    28    1
    91    20    19    1
    92    20    21    1
    93   115   117    1
    94    38    37    2
    95   129   130    1
    96   129   131    1
    97    28    27    1
    98     2     3    1
    99     2     1    1
   100    37    36    1
   101     4     3    2
   102    22    21    2
   103    18    16    1
   104   130   132    1
   105    51    50    1
   106   142   144    1
   107   142   143    1
   108    19    14   am
   109    49    50    1
   110    39    36    1
   111    39    40    1
   112    15    14    2
   113    14    13    1
   114    50    53    1
   115    16    13    1
   116    16    17    1
   117    36    35    1
   118    71    68    1
   119    53    54    1
   120    53    55    1
   121    41    40    1
   122    79    77    1
   123    13    12    1
   124    40    42    1
   125    77    78    1
   126    77    76    1
   127    68    69    1
   128    68    67    1
   129    69    72   am
   130    69    70    2
   131    84    81    1
   132    72    73    1
   133    73    76    1
   134    73    74    1
   135    81    80    1
   136    81    82    1
   137    74    75    2
   138    82    83    2
