@<TRIPOS>MOLECULE
tmp/2np6E00.pdb
 199 195 0 0 0
SMALL
GASTEIGER

@<TRIPOS>ATOM
      1  N         10.2000  -12.5080   40.7910 N.3     1  ARG1       -0.1231
      2  CA        10.0740  -11.0180   40.7050 C.3     1  ARG1        0.1694
      3  C         11.3190  -10.2920   41.2500 C.2     1  ARG1        0.2592
      4  O         11.2520   -9.1770   41.7620 O.2     1  ARG1       -0.2718
      5  CB         8.7490  -10.5540   41.3310 C.3     1  ARG1        0.0321
      6  CG         8.4900   -9.0590   41.4270 C.3     1  ARG1        0.0489
      7  CD         8.5780   -8.3210   40.0970 C.3     1  ARG1        0.2205
      8  NE         9.8780   -7.6790   39.8650 N.pl3   1  ARG1       -0.0865
      9  CZ        10.3910   -6.6910   40.5980 C.cat   1  ARG1        0.5346
     10  NH1       11.5640   -6.1770   40.2920 N.pl3   1  ARG1        0.1354
     11  NH2        9.7560   -6.2280   41.6540 N.pl3   1  ARG1        0.1354
     12  N         12.4490  -10.9840   41.1770 N.am    2  VAL2       -0.1966
     13  CA        13.7140  -10.3570   40.8130 C.3     2  VAL2        0.1727
     14  C         13.9680  -10.9620   39.4280 C.2     2  VAL2        0.2616
     15  O         14.9100  -10.5980   38.7190 O.2     2  VAL2       -0.2715
     16  CB        14.8590  -10.6170   41.8280 C.3     2  VAL2        0.0290
     17  CG1       15.0550  -12.1030   42.0830 C.3     2  VAL2        0.0023
     18  CG2       16.1620   -9.9590   41.3610 C.3     2  VAL2        0.0023
     19  N         13.0880  -11.8990   39.0680 N.am    3  GLU3       -0.1963
     20  CA        12.9650  -12.3960   37.7060 C.3     3  GLU3        0.1733
     21  C         11.5370  -12.3080   37.1630 C.2     3  GLU3        0.2617
     22  O         10.5510  -12.5890   37.8550 O.2     3  GLU3       -0.2715
     23  CB        13.5430  -13.8010   37.5530 C.3     3  GLU3        0.0429
     24  CG        12.9730  -14.8620   38.4580 C.3     3  GLU3        0.1163
     25  CD        13.9150  -16.0440   38.5780 C.2     3  GLU3        0.3649
     26  OE1       14.2700  -16.6400   37.5360 O.co2   3  GLU3       -0.2457
     27  OE2       14.3090  -16.3720   39.7160 O.co2   3  GLU3       -0.2457
     28  N         11.4640  -11.9100   35.9020 N.am    4  THR4       -0.1951
     29  CA        10.2320  -11.7980   35.1500 C.3     4  THR4        0.1897
     30  C         10.0890  -13.0830   34.3380 C.2     4  THR4        0.2313
     31  O         11.0560  -13.5080   33.6950 O.2     4  THR4       -0.2863
     32  CB        10.3350  -10.6030   34.1820 C.3     4  THR4        0.1794
     33  OG1       11.0320   -9.5250   34.8220 O.3     4  THR4       -0.2208
     34  CG2        8.9740  -10.1310   33.7300 C.3     4  THR4        0.0378
     35  N         17.5670   -0.6140   29.8690 N.3    26  GLU26      -0.1231
     36  CA        16.9820   -1.3780   30.9670 C.3    26  GLU26       0.1684
     37  C         17.5290   -0.9010   32.3240 C.2    26  GLU26       0.2434
     38  O         18.7030   -1.1040   32.6250 O.2    26  GLU26      -0.2733
     39  CB        17.2070   -2.8820   30.7880 C.3    26  GLU26       0.0402
     40  CG        16.4560   -3.7110   31.8360 C.3    26  GLU26       0.1161
     41  CD        16.7570   -5.1900   31.7740 C.2    26  GLU26       0.3649
     42  OE1       17.4050   -5.6450   30.8100 O.co2  26  GLU26      -0.2457
     43  OE2       16.3400   -5.9050   32.7040 O.co2  26  GLU26      -0.2457
     44  N         16.6760   -0.2420   33.1350 N.am   27  PRO27      -0.2718
     45  CA        17.0210    0.0820   34.5230 C.3    27  PRO27       0.1535
     46  C         16.9130   -1.1700   35.3910 C.2    27  PRO27       0.2598
     47  O         16.1140   -2.0640   35.0890 O.2    27  PRO27      -0.2715
     48  CB        15.9410    1.1000   34.9370 C.3    27  PRO27       0.0310
     49  CG        15.1810    1.4280   33.6800 C.3    27  PRO27       0.0237
     50  CD        15.3310    0.2480   32.7870 C.3    27  PRO27       0.0939
     51  N         17.7200   -1.2320   36.4510 N.am   28  ALA28      -0.1964
     52  CA        17.7430   -2.3820   37.3610 C.3    28  ALA28       0.1728
     53  C         17.9020   -3.6790   36.5810 C.2    28  ALA28       0.2616
     54  O         17.1960   -4.6590   36.8410 O.2    28  ALA28      -0.2715
     55  CB        16.4740   -2.4190   38.2100 C.3    28  ALA28       0.0334
     56  N         18.8410   -3.6750   35.6350 N.am   29  CYS29      -0.1954
     57  CA        18.9550   -4.7300   34.6250 C.3    29  CYS29       0.1843
     58  C         19.5140   -6.0710   35.1070 C.2    29  CYS29       0.2625
     59  O         19.1040   -7.1210   34.6100 O.2    29  CYS29      -0.2714
     60  CB        19.7920   -4.2310   33.4480 C.3    29  CYS29       0.0997
     61  SG        21.4840   -3.8150   33.8730 S.3    29  CYS29      -0.0797
     62  N         20.4280   -6.0240   36.0770 N.am   30  ALA30      -0.1977
     63  CA        21.2840   -7.1630   36.4250 C.3    30  ALA30       0.1597
     64  C         21.9010   -7.7390   35.1500 C.2    30  ALA30       0.2287
     65  O         22.7070   -7.0650   34.5150 O.2    30  ALA30      -0.2864
     66  CB        20.5190   -8.2330   37.2430 C.3    30  ALA30       0.0319
     67  N         17.7590   -9.2070   30.9230 N.3    33  PRO33      -0.2102
     68  CA        16.9560  -10.0970   30.0780 C.3    33  PRO33       0.1504
     69  C         16.0310   -9.3630   29.1100 C.2    33  PRO33       0.2575
     70  O         15.6510   -9.9380   28.0960 O.2    33  PRO33      -0.2718
     71  CB        16.1410  -10.9130   31.0860 C.3    33  PRO33       0.0282
     72  CG        16.0320  -10.0300   32.2790 C.3    33  PRO33       0.0208
     73  CD        17.3000   -9.2150   32.3260 C.3    33  PRO33       0.0893
     74  N         15.6790   -8.1120   29.4130 N.am   34  PHE34      -0.1977
     75  CA        14.8420   -7.3060   28.5210 C.3    34  PHE34       0.1639
     76  C         15.6060   -6.7980   27.2940 C.2    34  PHE34       0.2290
     77  O         15.0680   -6.7860   26.1820 O.2    34  PHE34      -0.2864
     78  CB        14.1820   -6.1470   29.2840 C.3    34  PHE34       0.0560
     79  CG        13.0650   -6.5840   30.2050 C.ar   34  PHE34      -0.0200
     80  CD1       11.7770   -6.8010   29.7140 C.ar   34  PHE34      -0.0042
     81  CD2       13.3040   -6.7890   31.5600 C.ar   34  PHE34      -0.0042
     82  CE1       10.7370   -7.2200   30.5690 C.ar   34  PHE34      -0.0003
     83  CE2       12.2740   -7.2060   32.4180 C.ar   34  PHE34      -0.0003
     84  CZ        10.9940   -7.4200   31.9230 C.ar   34  PHE34      -0.0000
     85  N         21.4990   -0.1150   33.3590 N.3    51  VAL51      -0.1231
     86  CA        21.8760    0.4770   34.6570 C.3    51  VAL51       0.1692
     87  C         21.5780   -0.4620   35.8350 C.2    51  VAL51       0.2592
     88  O         20.4320   -0.8690   36.0550 O.2    51  VAL51      -0.2718
     89  CB        21.2270    1.8850   34.8910 C.3    51  VAL51       0.0266
     90  CG1       21.4460    2.3770   36.3350 C.3    51  VAL51       0.0020
     91  CG2       21.7730    2.9090   33.8920 C.3    51  VAL51       0.0020
     92  N         22.6220   -0.7770   36.5980 N.am   52  GLU52      -0.1966
     93  CA        22.5210   -1.6680   37.7450 C.3    52  GLU52       0.1733
     94  C         23.3110   -1.1180   38.9460 C.2    52  GLU52       0.2616
     95  O         24.4180   -0.6080   38.7790 O.2    52  GLU52      -0.2715
     96  CB        22.9930   -3.0780   37.3440 C.3    52  GLU52       0.0429
     97  CG        23.2040   -4.0500   38.4950 C.3    52  GLU52       0.1163
     98  CD        21.9350   -4.3570   39.2430 C.2    52  GLU52       0.3649
     99  OE1       20.9540   -4.7770   38.5990 O.co2  52  GLU52      -0.2457
    100  OE2       21.9210   -4.1960   40.4790 O.co2  52  GLU52      -0.2457
    101  N         22.7440   -1.2370   40.1490 N.am   53  ILE53      -0.1963
    102  CA        23.3560   -0.6680   41.3620 C.3    53  ILE53       0.1727
    103  C         24.3830   -1.6000   42.0070 C.2    53  ILE53       0.2616
    104  O         25.3440   -1.1430   42.6420 O.2    53  ILE53      -0.2715
    105  CB        22.2780   -0.2250   42.4090 C.3    53  ILE53       0.0290
    106  CG1       22.8130    0.9140   43.2910 C.3    53  ILE53       0.0022
    107  CG2       21.7210   -1.4430   43.2150 C.3    53  ILE53       0.0023
    108  CD1       21.8350    1.4280   44.3600 C.3    53  ILE53       0.0001
    109  N         24.1660   -2.9030   41.8240 N.am   54  ASP54      -0.1971
    110  CA        24.9310   -3.9430   42.4940 C.3    54  ASP54       0.1709
    111  C         25.8680   -4.6480   41.5060 C.2    54  ASP54       0.2293
    112  O         25.3990   -5.3410   40.6050 O.2    54  ASP54      -0.2864
    113  CB        23.9710   -4.9550   43.1410 C.3    54  ASP54       0.1436
    114  CG        24.6900   -6.0630   43.8870 C.2    54  ASP54       0.3671
    115  OD1       25.9160   -5.9690   44.0910 O.co2  54  ASP54      -0.2456
    116  OD2       24.0210   -7.0370   44.2790 O.co2  54  ASP54      -0.2456
    117  N         25.4060   -8.1760   40.5850 N.3    57  ALA57      -0.1245
    118  CA        24.2740   -8.4300   39.6870 C.3    57  ALA57       0.1562
    119  C         24.5360   -8.0720   38.2180 C.2    57  ALA57       0.2260
    120  O         24.0420   -8.7540   37.3210 O.2    57  ALA57      -0.2867
    121  CB        23.0210   -7.7120   40.1910 C.3    57  ALA57       0.0290
    122  N         25.3250    2.3140   38.8090 N.3    69  ALA69      -0.1231
    123  CA        24.7560    3.4990   39.4440 C.3    69  ALA69       0.1694
    124  C         23.3690    3.2320   40.0310 C.2    69  ALA69       0.2592
    125  O         22.7390    2.2020   39.7540 O.2    69  ALA69      -0.2718
    126  CB        24.6870    4.6500   38.4510 C.3    69  ALA69       0.0304
    127  N         22.9120    4.1710   40.8540 N.am   70  ASP70      -0.1960
    128  CA        21.5330    4.2250   41.2810 C.3    70  ASP70       0.1840
    129  C         20.7570    4.8890   40.1510 C.2    70  ASP70       0.2622
    130  O         20.9770    6.0700   39.8540 O.2    70  ASP70      -0.2715
    131  CB        21.4100    5.0450   42.5700 C.3    70  ASP70       0.1450
    132  CG        20.0140    5.0120   43.1620 C.2    70  ASP70       0.3671
    133  OD1       19.0580    4.5850   42.4810 O.co2  70  ASP70      -0.2456
    134  OD2       19.8680    5.4210   44.3250 O.co2  70  ASP70      -0.2456
    135  N         19.8740    4.1190   39.5120 N.am   71  PHE71      -0.1960
    136  CA        19.0640    4.6070   38.4010 C.3    71  PHE71       0.1771
    137  C         18.3390    5.9110   38.7640 C.2    71  PHE71       0.2619
    138  O         18.2550    6.8310   37.9520 O.2    71  PHE71      -0.2715
    139  CB        18.0480    3.5390   37.9800 C.3    71  PHE71       0.0574
    140  CG        17.1110    3.9910   36.8970 C.ar   71  PHE71      -0.0200
    141  CD1       17.5960    4.3410   35.6390 C.ar   71  PHE71      -0.0042
    142  CD2       15.7500    4.0840   37.1350 C.ar   71  PHE71      -0.0042
    143  CE1       16.7380    4.7610   34.6430 C.ar   71  PHE71      -0.0003
    144  CE2       14.8740    4.5020   36.1360 C.ar   71  PHE71      -0.0003
    145  CZ        15.3720    4.8480   34.8900 C.ar   71  PHE71      -0.0000
    146  N         17.8510    5.9730   40.0020 N.am   72  LEU72      -0.1977
    147  CA        17.0550    7.0900   40.4980 C.3    72  LEU72       0.1596
    148  C         17.8570    8.3860   40.7080 C.2    72  LEU72       0.2287
    149  O         17.2810    9.4690   40.6800 O.2    72  LEU72      -0.2864
    150  CB        16.3160    6.6880   41.7880 C.3    72  LEU72       0.0297
    151  CG        15.4720    5.4050   41.7830 C.3    72  LEU72       0.0022
    152  CD1       14.9890    5.0610   43.1810 C.3    72  LEU72       0.0001
    153  CD2       14.3020    5.5260   40.8490 C.3    72  LEU72       0.0001
    154  N         11.6780   -4.2510   34.6380 N.3    86  ASN86      -0.1240
    155  CA        10.9180   -4.6480   35.7960 C.3    86  ASN86       0.1653
    156  C         11.5810   -3.9210   36.9730 C.2    86  ASN86       0.2266
    157  O         12.6380   -4.3360   37.4390 O.2    86  ASN86      -0.2867
    158  CB        10.9770   -6.1790   35.9340 C.3    86  ASN86       0.1155
    159  CG         9.9940   -6.7330   36.9500 C.2    86  ASN86       0.2627
    160  OD1        9.9420   -7.9450   37.1560 O.2    86  ASN86      -0.2716
    161  ND2        9.2140   -5.8690   37.5830 N.am   86  ASN86      -0.0877
    162  N         12.5330   -2.5180   40.7180 N.3    88  PRO88      -0.2116
    163  CA        12.3740   -3.0200   42.0890 C.3    88  PRO88       0.1372
    164  C         11.1310   -2.3950   42.7250 C.2    88  PRO88       0.2244
    165  O         10.8600   -1.2190   42.4850 O.2    88  PRO88      -0.2868
    166  CB        13.6380   -2.5250   42.8010 C.3    88  PRO88       0.0268
    167  CG        14.1510   -1.3860   41.9520 C.3    88  PRO88       0.0207
    168  CD        13.7770   -1.7390   40.5520 C.3    88  PRO88       0.0892
    169  N         15.8910   11.1680   47.1160 N.3   110  TYR110     -0.1241
    170  CA        14.8120   10.6400   46.2550 C.3   110  TYR110      0.1605
    171  C         13.6100   11.5700   46.2430 C.2   110  TYR110      0.2264
    172  O         13.0340   11.8540   45.1810 O.2   110  TYR110     -0.2867
    173  CB        14.3350    9.2530   46.7070 C.3   110  TYR110      0.0534
    174  CG        15.2780    8.0900   46.4680 C.ar  110  TYR110     -0.0201
    175  CD1       16.3960    8.2060   45.6330 C.ar  110  TYR110     -0.0009
    176  CD2       15.0270    6.8570   47.0610 C.ar  110  TYR110     -0.0009
    177  CE1       17.2560    7.1170   45.4220 C.ar  110  TYR110      0.0417
    178  CE2       15.8700    5.7660   46.8560 C.ar  110  TYR110      0.0417
    179  CZ        16.9820    5.9010   46.0410 C.ar  110  TYR110      0.1957
    180  OH        17.7990    4.8100   45.8500 O.3   110  TYR110     -0.2866
    181  N          9.3670    2.3600   45.6120 N.3   123  LEU123     -0.1245
    182  CA        10.4320    2.3410   44.6070 C.3   123  LEU123      0.1561
    183  C          9.8930    2.2820   43.1720 C.2   123  LEU123      0.2260
    184  O         10.3920    2.9870   42.3040 O.2   123  LEU123     -0.2867
    185  CB        11.4170    1.2000   44.8660 C.3   123  LEU123      0.0270
    186  CG        12.8850    1.5270   45.1920 C.3   123  LEU123      0.0019
    187  CD1       13.0620    2.6970   46.1490 C.3   123  LEU123      0.0001
    188  CD2       13.6060    0.2710   45.7090 C.3   123  LEU123      0.0001
    189  N         10.8030    4.8680   40.0650 N.3   127  PHE127     -0.1241
    190  CA        11.3280    4.3150   38.8130 C.3   127  PHE127      0.1605
    191  C         10.5240    4.6980   37.5820 C.2   127  PHE127      0.2264
    192  O         11.0930    4.9450   36.5130 O.2   127  PHE127     -0.2867
    193  CB        11.4320    2.7880   38.9070 C.3   127  PHE127      0.0534
    194  CG        12.8010    2.2960   39.2830 C.ar  127  PHE127     -0.0203
    195  CD1       13.2390    2.3570   40.6030 C.ar  127  PHE127     -0.0042
    196  CD2       13.6500    1.7690   38.3170 C.ar  127  PHE127     -0.0042
    197  CE1       14.5020    1.9100   40.9520 C.ar  127  PHE127     -0.0003
    198  CE2       14.9160    1.3180   38.6570 C.ar  127  PHE127     -0.0003
    199  CZ        15.3460    1.3940   39.9780 C.ar  127  PHE127     -0.0000
@<TRIPOS>BOND
     1    77    76    2
     2    76    75    1
     3    70    69    2
     4    75    78    1
     5    75    74    1
     6    69    74   am
     7    69    68    1
     8    78    79    1
     9    80    79   ar
    10    80    82   ar
    11    35    36    1
    12    68    67    1
    13    68    71    1
    14    79    81   ar
    15    82    84   ar
    16    39    36    1
    17    39    40    1
    18    42    41   ar
    19    67    73    1
    20    36    37    1
    21    71    72    1
    22    81    83   ar
    23    41    40    1
    24    41    43   ar
    25    84    83   ar
    26    72    73    1
    27    37    38    2
    28    37    44   am
    29    50    44    1
    30    50    49    1
    31    44    45    1
    32    85    86    1
    33    60    61    1
    34    60    57    1
    35    49    48    1
    36    31    30    2
    37    34    32    1
    38    91    89    1
    39    32    33    1
    40    32    29    1
    41    30    29    1
    42    65    64    2
    43    45    48    1
    44    45    46    1
    45    59    58    2
    46    57    58    1
    47    57    56    1
    48   154   155    1
    49   143   145   ar
    50   143   141   ar
    51    86    89    1
    52    86    87    1
    53   145   144   ar
    54    89    90    1
    55    47    46    2
    56    58    62   am
    57    64    63    1
    58    29    28    1
    59    46    51   am
    60    56    53   am
    61   141   140   ar
    62   155   158    1
    63   155   156    1
    64    87    88    2
    65    87    92   am
    66    28    21   am
    67   158   159    1
    68    62    63    1
    69   144   142   ar
    70    63    66    1
    71    51    52    1
    72   192   191    2
    73    53    54    2
    74    53    52    1
    75    92    93    1
    76   140   142   ar
    77   140   139    1
    78   159   160    2
    79   159   161   am
    80   156   157    2
    81    21    20    1
    82    21    22    2
    83   120   119    2
    84    96    93    1
    85    96    97    1
    86    52    55    1
    87    26    25   ar
    88    23    20    1
    89    23    24    1
    90   191   190    1
    91    20    19    1
    92    93    94    1
    93   138   137    2
    94   139   136    1
    95   119   118    1
    96   196   198   ar
    97   196   194   ar
    98   136   137    1
    99   136   135    1
   100   126   123    1
   101    24    25    1
   102    97    98    1
   103    25    27   ar
   104    99    98   ar
   105   198   199   ar
   106    15    14    2
   107   137   146   am
   108    95    94    2
   109   122   123    1
   110   190   193    1
   111   190   189    1
   112   193   194    1
   113    94   101   am
   114    19    14   am
   115    98   100   ar
   116   194   195   ar
   117    14    13    1
   118   123   124    1
   119   135   129   am
   120   118   121    1
   121   118   117    1
   122   125   124    2
   123   130   129    2
   124     8     7    1
   125     8     9    2
   126   199   197   ar
   127   146   147    1
   128   124   127   am
   129     7     6    1
   130   101   102    1
   131   129   128    1
   132    10     9    1
   133   147   148    1
   134   147   150    1
   135   168   162    1
   136   168   167    1
   137     9    11    1
   138   195   197   ar
   139   112   111    2
   140   149   148    2
   141     2     1    1
   142     2     3    1
   143     2     5    1
   144   162   163    1
   145    13    12    1
   146    13    16    1
   147   153   151    1
   148   127   128    1
   149    12     3   am
   150     3     4    2
   151   128   131    1
   152     5     6    1
   153    18    16    1
   154   102   103    1
   155   102   105    1
   156   111   110    1
   157   151   150    1
   158   151   152    1
   159   109   103   am
   160   109   110    1
   161    16    17    1
   162   167   166    1
   163   103   104    2
   164   163   164    1
   165   163   166    1
   166   184   183    2
   167   105   107    1
   168   105   106    1
   169   133   132   ar
   170   165   164    2
   171   110   113    1
   172   131   132    1
   173   113   114    1
   174   132   134   ar
   175   183   182    1
   176   106   108    1
   177   114   115   ar
   178   114   116   ar
   179   182   185    1
   180   182   181    1
   181   185   186    1
   182   172   171    2
   183   186   188    1
   184   186   187    1
   185   177   175   ar
   186   177   179   ar
   187   175   174   ar
   188   180   179    1
   189   179   178   ar
   190   171   170    1
   191   170   173    1
   192   170   169    1
   193   174   173    1
   194   174   176   ar
   195   178   176   ar
