@<TRIPOS>MOLECULE
tmp/2np8A00.pdb
 187 177 0 0 0
SMALL
GASTEIGER

@<TRIPOS>ATOM
      1  N          5.8390   27.4190   -4.8890 N.3    11  ARG11      -0.1245
      2  CA         5.0600   27.3950   -3.6540 C.3    11  ARG11       0.1563
      3  C          3.6150   26.9570   -3.8850 C.2    11  ARG11       0.2260
      4  O          3.0270   27.2810   -4.9240 O.2    11  ARG11      -0.2867
      5  CB         5.0570   28.7750   -3.0070 C.3    11  ARG11       0.0307
      6  CG         4.6120   29.8810   -3.9400 C.3    11  ARG11       0.0489
      7  CD         4.4350   31.1720   -3.1870 C.3    11  ARG11       0.2205
      8  NE         3.2160   31.1750   -2.4020 N.pl3  11  ARG11      -0.0865
      9  CZ         2.2040   32.0140   -2.5820 C.cat  11  ARG11       0.5346
     10  NH1        2.2580   32.9500   -3.5150 N.pl3  11  ARG11       0.1354
     11  NH2        1.1380   31.9200   -1.8080 N.pl3  11  ARG11       0.1354
     12  N         -0.1930   27.4750   -3.5210 N.3    13  LEU13      -0.1231
     13  CA        -1.0480   28.6490   -3.4000 C.3    13  LEU13       0.1693
     14  C         -2.2360   28.3880   -2.4740 C.2    13  LEU13       0.2593
     15  O         -2.5650   29.2240   -1.6320 O.2    13  LEU13      -0.2718
     16  CB        -1.5400   29.1050   -4.7820 C.3    13  LEU13       0.0284
     17  CG        -0.5170   29.4210   -5.8840 C.3    13  LEU13       0.0019
     18  CD1       -1.2130   29.6520   -7.2300 C.3    13  LEU13       0.0001
     19  CD2        0.3790   30.6080   -5.5190 C.3    13  LEU13       0.0001
     20  N         -2.8720   27.2280   -2.6370 N.am   14  GLY14      -0.1942
     21  CA        -4.0670   26.8650   -1.8730 C.3    14  GLY14       0.2014
     22  C         -4.2120   25.3620   -1.7430 C.2    14  GLY14       0.2639
     23  O         -3.6100   24.6120   -2.5090 O.2    14  GLY14      -0.2714
     24  N         -5.0180   24.9220   -0.7780 N.am   15  LYS15      -0.1963
     25  CA        -5.1040   23.4960   -0.4290 C.3    15  LYS15       0.1728
     26  C         -6.3820   22.8040   -0.9060 C.2    15  LYS15       0.2617
     27  O         -6.5770   21.6050   -0.6570 O.2    15  LYS15      -0.2715
     28  CB        -4.8780   23.2850    1.0730 C.3    15  LYS15       0.0311
     29  CG        -3.3950   23.2660    1.4750 C.3    15  LYS15       0.0038
     30  CD        -3.1620   23.8800    2.8620 C.3    15  LYS15       0.0206
     31  CE        -3.0620   25.4080    2.8100 C.3    15  LYS15       0.1093
     32  NZ        -1.7890   25.8880    2.1800 N.3    15  LYS15      -0.1314
     33  N         -7.2490   23.5800   -1.5560 N.am   16  GLY16      -0.1940
     34  CA        -8.2910   23.0780   -2.4570 C.3    16  GLY16       0.2014
     35  C         -9.2790   21.9740   -2.1130 C.2    16  GLY16       0.2638
     36  O         -9.2370   21.3580   -1.0470 O.2    16  GLY16      -0.2714
     37  N        -10.1730   21.7480   -3.0710 N.am   17  LYS17      -0.1977
     38  CA       -11.2520   20.7630   -3.0170 C.3    17  LYS17       0.1596
     39  C        -10.7380   19.3230   -3.1450 C.2    17  LYS17       0.2287
     40  O        -10.9720   18.4960   -2.2540 O.2    17  LYS17      -0.2864
     41  CB       -12.2600   21.0810   -4.1370 C.3    17  LYS17       0.0298
     42  CG       -11.5780   21.6320   -5.4330 C.3    17  LYS17       0.0038
     43  CD       -12.2710   22.8580   -6.0520 C.3    17  LYS17       0.0206
     44  CE       -12.6260   23.9350   -5.0310 C.3    17  LYS17       0.1093
     45  NZ       -11.4500   24.4080   -4.2530 N.3    17  LYS17      -0.1314
     46  N         -7.3550   18.5800   -4.1750 N.3    19  GLY19      -0.1225
     47  CA        -5.8960   18.6510   -4.2250 C.3    19  GLY19       0.1811
     48  C         -5.4300   20.0950   -4.2840 C.2    19  GLY19       0.2280
     49  O         -6.2210   21.0080   -4.5690 O.2    19  GLY19      -0.2866
     50  N         -3.3350   23.6430   -5.3170 N.3    21  VAL21      -0.1245
     51  CA        -2.9210   24.4300   -6.4710 C.3    21  VAL21       0.1561
     52  C         -1.5160   24.9660   -6.2020 C.2    21  VAL21       0.2260
     53  O         -1.2230   25.4380   -5.1040 O.2    21  VAL21      -0.2867
     54  CB        -3.9150   25.5740   -6.7770 C.3    21  VAL21       0.0252
     55  CG1       -3.5320   26.2990   -8.0670 C.3    21  VAL21       0.0019
     56  CG2       -5.3280   25.0170   -6.8880 C.3    21  VAL21       0.0019
     57  N         -0.6710   28.7110  -12.8720 N.3    34  ALA34      -0.1245
     58  CA        -1.1000   27.9330  -11.7120 C.3    34  ALA34       0.1562
     59  C         -1.4490   26.5030  -12.1220 C.2    34  ALA34       0.2260
     60  O         -2.1590   26.2710  -13.1080 O.2    34  ALA34      -0.2867
     61  CB        -2.2730   28.5950  -11.0310 C.3    34  ALA34       0.0290
     62  N         -3.3560   23.3300  -10.9650 N.3    36  LYS36      -0.1245
     63  CA        -4.3450   22.7040  -10.0880 C.3    36  LYS36       0.1561
     64  C         -4.2630   21.1890  -10.2200 C.2    36  LYS36       0.2260
     65  O         -4.4360   20.6300  -11.3120 O.2    36  LYS36      -0.2867
     66  CB        -5.7560   23.1970  -10.4060 C.3    36  LYS36       0.0271
     67  CG        -6.8200   22.7000   -9.4450 C.3    36  LYS36       0.0035
     68  CD        -8.0740   23.5300   -9.5770 C.3    36  LYS36       0.0206
     69  CE        -9.0980   23.1830   -8.5110 C.3    36  LYS36       0.1093
     70  NZ       -10.2220   24.1620   -8.5340 N.3    36  LYS36      -0.1314
     71  N        -10.9790   33.6350  -15.1190 N.3    68  LEU68      -0.1245
     72  CA        -9.6590   33.0160  -15.1520 C.3    68  LEU68       0.1561
     73  C         -9.5600   32.0600  -16.3300 C.2    68  LEU68       0.2260
     74  O        -10.3920   31.1680  -16.5030 O.2    68  LEU68      -0.2867
     75  CB        -9.3590   32.2770  -13.8450 C.3    68  LEU68       0.0270
     76  CG        -7.8990   31.9600  -13.4960 C.3    68  LEU68       0.0019
     77  CD1       -7.2070   33.1900  -12.9630 C.3    68  LEU68       0.0001
     78  CD2       -7.8170   30.8460  -12.4720 C.3    68  LEU68       0.0001
     79  N         -3.6860   26.6560  -15.4430 N.3    84  LEU84      -0.1231
     80  CA        -4.5060   27.8300  -15.2460 C.3    84  LEU84       0.1693
     81  C         -3.7300   29.1410  -15.2840 C.2    84  LEU84       0.2592
     82  O         -2.5520   29.2090  -14.9040 O.2    84  LEU84      -0.2718
     83  CB        -5.2370   27.7120  -13.9100 C.3    84  LEU84       0.0284
     84  CG        -6.3580   26.6820  -13.7690 C.3    84  LEU84       0.0019
     85  CD1       -6.4930   26.2640  -12.3150 C.3    84  LEU84       0.0001
     86  CD2       -7.6770   27.2430  -14.3150 C.3    84  LEU84       0.0001
     87  N         -4.4170   30.1820  -15.7390 N.am   85  GLU85      -0.1966
     88  CA        -3.9340   31.5410  -15.6030 C.3    85  GLU85       0.1733
     89  C         -3.6070   31.8110  -14.1300 C.2    85  GLU85       0.2616
     90  O         -4.3970   31.4930  -13.2320 O.2    85  GLU85      -0.2715
     91  CB        -4.9850   32.5220  -16.1150 C.3    85  GLU85       0.0429
     92  CG        -4.6120   33.9890  -15.9660 C.3    85  GLU85       0.1163
     93  CD        -5.7530   34.9100  -16.3310 C.2    85  GLU85       0.3649
     94  OE1       -5.7020   36.1010  -15.9590 O.co2  85  GLU85      -0.2457
     95  OE2       -6.7060   34.4480  -16.9920 O.co2  85  GLU85      -0.2457
     96  N         -2.4280   32.3670  -13.8880 N.am   86  TYR86      -0.1960
     97  CA        -2.0350   32.7140  -12.5290 C.3    86  TYR86       0.1771
     98  C         -2.5510   34.1110  -12.1920 C.2    86  TYR86       0.2619
     99  O         -2.3460   35.0640  -12.9530 O.2    86  TYR86      -0.2715
    100  CB        -0.5190   32.5820  -12.3540 C.3    86  TYR86       0.0574
    101  CG         0.0820   33.2970  -11.1630 C.ar   86  TYR86      -0.0198
    102  CD1        1.0660   34.2680  -11.3470 C.ar   86  TYR86      -0.0009
    103  CD2       -0.2980   32.9840   -9.8540 C.ar   86  TYR86      -0.0009
    104  CE1        1.6480   34.9280  -10.2660 C.ar   86  TYR86       0.0417
    105  CE2        0.2740   33.6480   -8.7620 C.ar   86  TYR86       0.0417
    106  CZ         1.2490   34.6140   -8.9810 C.ar   86  TYR86       0.1957
    107  OH         1.8360   35.2760   -7.9250 O.3    86  TYR86      -0.2866
    108  N         -3.2570   34.1960  -11.0660 N.am   87  ALA87      -0.1964
    109  CA        -3.8190   35.4470  -10.5640 C.3    87  ALA87       0.1713
    110  C         -2.9990   35.9070   -9.3500 C.2    87  ALA87       0.2458
    111  O         -3.1530   35.3620   -8.2600 O.2    87  ALA87      -0.2730
    112  CB        -5.2830   35.2520  -10.1940 C.3    87  ALA87       0.0333
    113  N         -2.1040   36.8920   -9.5500 N.am   88  PRO88      -0.2716
    114  CA        -1.0990   37.3160   -8.5600 C.3    88  PRO88       0.1536
    115  C         -1.6290   37.7570   -7.1860 C.2    88  PRO88       0.2598
    116  O         -1.0000   37.4640   -6.1670 O.2    88  PRO88      -0.2715
    117  CB        -0.3970   38.4810   -9.2610 C.3    88  PRO88       0.0310
    118  CG        -0.5800   38.2080  -10.6940 C.3    88  PRO88       0.0237
    119  CD        -1.9760   37.6690  -10.7960 C.3    88  PRO88       0.0939
    120  N         -2.7770   38.4240   -7.1500 N.am   89  LEU89      -0.1964
    121  CA        -3.2520   39.0280   -5.9010 C.3    89  LEU89       0.1728
    122  C         -4.2120   38.1760   -5.0480 C.2    89  LEU89       0.2617
    123  O         -4.8670   38.6860   -4.1420 O.2    89  LEU89      -0.2715
    124  CB        -3.8270   40.4310   -6.1720 C.3    89  LEU89       0.0311
    125  CG        -2.8470   41.6130   -6.3110 C.3    89  LEU89       0.0022
    126  CD1       -1.8930   41.4760   -7.4800 C.3    89  LEU89       0.0001
    127  CD2       -3.6040   42.9220   -6.4350 C.3    89  LEU89       0.0001
    128  N         -4.2880   36.8780   -5.3320 N.am   90  GLY90      -0.1940
    129  CA        -5.0450   35.9500   -4.4960 C.3    90  GLY90       0.2014
    130  C         -6.5520   36.0620   -4.5460 C.2    90  GLY90       0.2639
    131  O         -7.1140   36.6540   -5.4730 O.2    90  GLY90      -0.2714
    132  N         -7.1990   35.4920   -3.5310 N.am   91  THR91      -0.1950
    133  CA        -8.6550   35.4540   -3.4540 C.3    91  THR91       0.1897
    134  C         -9.2240   36.6850   -2.7710 C.2    91  THR91       0.2313
    135  O         -8.5940   37.2790   -1.8730 O.2    91  THR91      -0.2863
    136  CB        -9.1900   34.2080   -2.7010 C.3    91  THR91       0.1794
    137  OG1       -8.8290   34.2910   -1.3220 O.3    91  THR91      -0.2208
    138  CG2       -8.6380   32.9140   -3.2850 C.3    91  THR91       0.0378
    139  N         -9.4670   35.9500    0.9970 N.3    94  ARG94      -0.1245
    140  CA        -8.3570   36.4010    1.8610 C.3    94  ARG94       0.1563
    141  C         -8.3930   37.9230    2.0280 C.2    94  ARG94       0.2260
    142  O         -8.1600   38.4400    3.1190 O.2    94  ARG94      -0.2867
    143  CB        -6.9800   35.9340    1.3270 C.3    94  ARG94       0.0307
    144  CG        -5.7580   36.3000    2.2250 C.3    94  ARG94       0.0489
    145  CD        -4.3910   35.7810    1.6580 C.3    94  ARG94       0.2205
    146  NE        -3.2150   36.5250    2.1620 N.pl3  94  ARG94      -0.0865
    147  CZ        -2.3280   36.0800    3.0620 C.cat  94  ARG94       0.5346
    148  NH1       -1.3240   36.8610    3.4360 N.pl3  94  ARG94       0.1354
    149  NH2       -2.4340   34.8690    3.5990 N.pl3  94  ARG94       0.1354
    150  N        -14.1500   32.6420   -2.1980 N.3   134  GLU134     -0.1231
    151  CA       -12.9900   31.7680   -2.4010 C.3   134  GLU134      0.1699
    152  C        -12.8470   31.2590   -3.8380 C.2   134  GLU134      0.2592
    153  O        -11.8230   30.6620   -4.1860 O.2   134  GLU134     -0.2718
    154  CB       -12.9470   30.6140   -1.3830 C.3   134  GLU134      0.0402
    155  CG       -14.2100   29.7690   -1.2710 C.3   134  GLU134      0.1161
    156  CD       -15.2010   30.2840   -0.2250 C.2   134  GLU134      0.3649
    157  OE1      -15.4610   29.5380    0.7560 O.co2 134  GLU134     -0.2457
    158  OE2      -15.7240   31.4160   -0.3790 O.co2 134  GLU134     -0.2457
    159  N        -13.8650   31.4910   -4.6630 N.am  135  ASN135     -0.1974
    160  CA       -13.7810   31.2250   -6.0980 C.3   135  ASN135      0.1688
    161  C        -13.5870   32.5110   -6.8880 C.2   135  ASN135      0.2292
    162  O        -13.7850   32.5410   -8.1020 O.2   135  ASN135     -0.2864
    163  CB       -15.0410   30.5290   -6.5960 C.3   135  ASN135      0.1181
    164  CG       -15.2170   29.1520   -6.0150 C.2   135  ASN135      0.2629
    165  OD1      -14.3000   28.5870   -5.4150 O.2   135  ASN135     -0.2716
    166  ND2      -16.4080   28.5950   -6.1900 N.am  135  ASN135     -0.0877
    167  N        -10.8490   35.5340   -7.6520 N.3   137  LEU137     -0.1245
    168  CA        -9.4300   35.8370   -7.6350 C.3   137  LEU137      0.1561
    169  C         -9.2020   37.2700   -8.0790 C.2   137  LEU137      0.2260
    170  O        -10.0990   37.9050   -8.6410 O.2   137  LEU137     -0.2867
    171  CB        -8.6630   34.8730   -8.5430 C.3   137  LEU137      0.0270
    172  CG        -8.4500   33.4360   -8.0600 C.3   137  LEU137      0.0019
    173  CD1       -8.0050   32.5790   -9.2160 C.3   137  LEU137      0.0001
    174  CD2       -7.4240   33.3690   -6.9350 C.3   137  LEU137      0.0001
    175  N        -12.6760   32.2480  -10.6450 N.3   147  ALA147     -0.1231
    176  CA       -11.5320   31.3340  -10.6130 C.3   147  ALA147      0.1694
    177  C        -11.7730   30.0830  -11.4320 C.2   147  ALA147      0.2592
    178  O        -10.8960   29.6350  -12.1830 O.2   147  ALA147     -0.2718
    179  CB       -11.1730   30.9620   -9.1750 C.3   147  ALA147      0.0304
    180  N        -12.9660   29.5220  -11.2750 N.am  148  ASP148     -0.1974
    181  CA       -13.3550   28.3000  -11.9620 C.3   148  ASP148      0.1709
    182  C        -14.8860   28.2160  -12.0070 C.2   148  ASP148      0.2293
    183  O        -15.5730   29.2050  -11.7130 O.2   148  ASP148     -0.2864
    184  CB       -12.7430   27.0770  -11.2640 C.3   148  ASP148      0.1436
    185  CG       -13.1960   26.9360   -9.8260 C.2   148  ASP148      0.3671
    186  OD1      -12.6120   27.5900   -8.9370 O.co2 148  ASP148     -0.2456
    187  OD2      -14.1310   26.1540   -9.5780 O.co2 148  ASP148     -0.2456
@<TRIPOS>BOND
     1    95    93   ar
     2    74    73    2
     3    93    92    1
     4    93    94   ar
     5    73    72    1
     6    91    92    1
     7    91    88    1
     8    87    88    1
     9    87    81   am
    10    88    89    1
    11    79    80    1
    12    81    80    1
    13    81    82    2
    14    80    83    1
    15    72    71    1
    16    72    75    1
    17    86    84    1
    18    89    96   am
    19    89    90    2
    20    83    84    1
    21    96    97    1
    22    75    76    1
    23    84    85    1
    24    76    77    1
    25    76    78    1
    26    60    59    2
    27    99    98    2
    28    57    58    1
    29    97   100    1
    30    97    98    1
    31   100   101    1
    32    98   108   am
    33   178   177    2
    34    59    58    1
    35   182   181    1
    36   182   183    2
    37   181   180    1
    38   181   184    1
    39    58    61    1
    40   177   180   am
    41   177   176    1
    42   102   101   ar
    43   102   104   ar
    44    65    64    2
    45   184   185    1
    46   101   103   ar
    47   108   109    1
    48    62    63    1
    49   119   118    1
    50   119   113    1
    51   118   117    1
    52   175   176    1
    53   176   179    1
    54   109   112    1
    55   109   110    1
    56    66    63    1
    57    66    67    1
    58   104   106   ar
    59    64    63    1
    60   103   105   ar
    61   185   187   ar
    62   185   186   ar
    63    68    67    1
    64    68    69    1
    65   113   110   am
    66   113   114    1
    67   110   111    2
    68   117   114    1
    69   173   172    1
    70   106   105   ar
    71   106   107    1
    72   170   169    2
    73   114   115    1
    74   171   172    1
    75   171   168    1
    76    70    69    1
    77   162   161    2
    78   169   168    1
    79    55    54    1
    80   172   174    1
    81   167   168    1
    82   126   125    1
    83    18    17    1
    84   115   120   am
    85   115   116    2
    86   120   121    1
    87   161   160    1
    88    56    54    1
    89    54    51    1
    90   163   160    1
    91   163   164    1
    92    51    52    1
    93    51    50    1
    94   127   125    1
    95   125   124    1
    96    52    53    2
    97   166   164   am
    98   124   121    1
    99   160   159    1
   100    43    42    1
   101    43    44    1
   102   164   165    2
   103   121   122    1
   104    17    19    1
   105    17    16    1
   106   131   130    2
   107    42    41    1
   108   128   122   am
   109   128   129    1
   110   122   123    2
   111    44    45    1
   112     4     3    2
   113     1     2    1
   114    16    13    1
   115   159   152   am
   116    49    48    2
   117   130   129    1
   118   130   132   am
   119    48    47    1
   120    47    46    1
   121   153   152    2
   122    41    38    1
   123     6     7    1
   124     6     5    1
   125     3     2    1
   126   152   151    1
   127     2     5    1
   128   132   133    1
   129    12    13    1
   130    10     9    1
   131   133   134    1
   132   133   136    1
   133    13    14    1
   134   138   136    1
   135     7     8    1
   136    39    38    1
   137    39    40    2
   138    37    38    1
   139    37    35   am
   140   134   135    2
   141   136   137    1
   142    20    14   am
   143    20    21    1
   144     9     8    2
   145     9    11    1
   146    23    22    2
   147    14    15    2
   148    34    35    1
   149    34    33    1
   150   151   150    1
   151   151   154    1
   152    35    36    2
   153    21    22    1
   154    22    24   am
   155    33    26   am
   156   154   155    1
   157   155   156    1
   158    26    27    2
   159    26    25    1
   160    24    25    1
   161    25    28    1
   162   158   156   ar
   163   156   157   ar
   164   139   140    1
   165    28    29    1
   166   143   140    1
   167   143   144    1
   168    29    30    1
   169   145   146    1
   170   145   144    1
   171   140   141    1
   172   141   142    2
   173   146   147    2
   174    32    31    1
   175    31    30    1
   176   147   148    1
   177   147   149    1
