@<TRIPOS>MOLECULE
tmp/2npaC00.pdb
 159 151 0 0 0
SMALL
GASTEIGER

@<TRIPOS>ATOM
      1  N         -8.9780   20.6940   27.3910 N.3    83  VAL83      -0.1231
      2  CA       -10.2200   21.0930   28.0590 C.3    83  VAL83       0.1692
      3  C        -10.8230   19.8200   28.6450 C.2    83  VAL83       0.2592
      4  O        -11.3350   19.8160   29.7600 O.2    83  VAL83      -0.2718
      5  CB       -11.2340   21.7430   27.0690 C.3    83  VAL83       0.0266
      6  CG1      -12.5720   21.9760   27.7500 C.3    83  VAL83       0.0020
      7  CG2      -10.6930   23.0580   26.5700 C.3    83  VAL83       0.0020
      8  N        -10.7300   18.7290   27.8940 N.am   84  THR84      -0.1953
      9  CA       -11.2640   17.4360   28.3380 C.3    84  THR84       0.1897
     10  C        -10.5530   16.9250   29.5900 C.2    84  THR84       0.2313
     11  O        -11.1880   16.4390   30.5280 O.2    84  THR84      -0.2863
     12  CB       -11.1390   16.3630   27.2120 C.3    84  THR84       0.1794
     13  OG1      -12.1510   16.5880   26.2220 O.3    84  THR84      -0.2208
     14  CG2      -11.2840   14.9700   27.7590 C.3    84  THR84       0.0378
     15  N        -11.4430   19.0910   32.8380 N.3    87  THR87      -0.1203
     16  CA       -12.7390   18.7420   33.4090 C.3    87  THR87       0.1994
     17  C        -12.5900   17.5760   34.3820 C.2    87  THR87       0.2617
     18  O        -13.1720   17.6010   35.4680 O.2    87  THR87      -0.2717
     19  CB       -13.7330   18.3760   32.2960 C.3    87  THR87       0.1784
     20  OG1      -13.9080   19.5110   31.4380 O.3    87  THR87      -0.2211
     21  CG2      -15.0690   17.9800   32.8810 C.3    87  THR87       0.0376
     22  N        -11.8090   16.5620   34.0030 N.am   88  GLU88      -0.1979
     23  CA       -11.5810   15.4270   34.8970 C.3    88  GLU88       0.1602
     24  C        -10.7450   15.9040   36.0860 C.2    88  GLU88       0.2287
     25  O        -10.9830   15.5010   37.2320 O.2    88  GLU88      -0.2864
     26  CB       -10.8640   14.2790   34.1780 C.3    88  GLU88       0.0415
     27  CG       -11.7560   13.4990   33.2310 C.3    88  GLU88       0.1163
     28  CD       -13.0740   13.1020   33.8820 C.2    88  GLU88       0.3649
     29  OE1      -13.0860   12.1640   34.7220 O.co2  88  GLU88      -0.2457
     30  OE2      -14.1050   13.7510   33.5660 O.co2  88  GLU88      -0.2457
     31  N        -12.9300   17.7340   38.6120 N.3    91  LYS91      -0.1245
     32  CA       -13.7530   16.7840   39.3440 C.3    91  LYS91       0.1561
     33  C        -12.9580   16.2110   40.5030 C.2    91  LYS91       0.2260
     34  O        -13.5080   15.9390   41.5550 O.2    91  LYS91      -0.2867
     35  CB       -14.2010   15.6490   38.4120 C.3    91  LYS91       0.0271
     36  CG       -15.2060   16.0840   37.3620 C.3    91  LYS91       0.0035
     37  CD       -15.5070   14.9710   36.3590 C.3    91  LYS91       0.0206
     38  CE       -16.8950   15.1630   35.7610 C.3    91  LYS91       0.1093
     39  NZ       -17.2550   14.1260   34.7540 N.3    91  LYS91      -0.1314
     40  N        -15.3380   20.7660   44.2160 N.3    96  PHE96      -0.1241
     41  CA       -15.7920   21.1570   42.8820 C.3    96  PHE96       0.1605
     42  C        -17.0370   20.4080   42.4140 C.2    96  PHE96       0.2264
     43  O        -18.0200   21.0340   42.0090 O.2    96  PHE96      -0.2867
     44  CB       -14.6840   20.9500   41.8550 C.3    96  PHE96       0.0534
     45  CG       -15.0140   21.4780   40.4970 C.ar   96  PHE96      -0.0203
     46  CD1      -14.7680   22.8000   40.1790 C.ar   96  PHE96      -0.0042
     47  CD2      -15.5870   20.6550   39.5340 C.ar   96  PHE96      -0.0042
     48  CE1      -15.0860   23.3000   38.9220 C.ar   96  PHE96      -0.0003
     49  CE2      -15.9090   21.1470   38.2690 C.ar   96  PHE96      -0.0003
     50  CZ       -15.6570   22.4710   37.9660 C.ar   96  PHE96      -0.0000
     51  N        -23.8690   22.8170   39.0740 N.3   101  LEU101     -0.1231
     52  CA       -23.5620   22.5780   37.6650 C.3   101  LEU101      0.1693
     53  C        -23.2400   23.9010   36.9820 C.2   101  LEU101      0.2592
     54  O        -22.1470   24.0810   36.4600 O.2   101  LEU101     -0.2718
     55  CB       -24.7620   21.9050   36.9960 C.3   101  LEU101      0.0284
     56  CG       -26.1470   22.3990   37.4740 C.3   101  LEU101      0.0019
     57  CD1      -26.5820   23.5700   36.5810 C.3   101  LEU101      0.0001
     58  CD2      -27.2040   21.2850   37.3930 C.3   101  LEU101      0.0001
     59  N        -24.1840   24.8380   37.0090 N.am  102  ASN102     -0.1974
     60  CA       -23.9790   26.1490   36.3970 C.3   102  ASN102      0.1688
     61  C        -22.6100   26.7450   36.7610 C.2   102  ASN102      0.2292
     62  O        -21.8640   27.1810   35.8710 O.2   102  ASN102     -0.2864
     63  CB       -25.0980   27.1130   36.8400 C.3   102  ASN102      0.1181
     64  CG       -26.4870   26.6860   36.3270 C.2   102  ASN102      0.2629
     65  OD1      -26.7740   26.7890   35.1230 O.2   102  ASN102     -0.2716
     66  ND2      -27.3420   26.1900   37.2370 N.am  102  ASN102     -0.0877
     67  N        -19.9410   25.1960   37.9370 N.3   104  GLN104     -0.1231
     68  CA       -18.9140   24.3290   37.3870 C.3   104  GLN104      0.1698
     69  C        -18.5560   24.6400   35.9250 C.2   104  GLN104      0.2592
     70  O        -17.3730   24.7240   35.5690 O.2   104  GLN104     -0.2718
     71  CB       -19.3470   22.8650   37.5000 C.3   104  GLN104      0.0381
     72  CG       -19.3240   22.3350   38.9060 C.3   104  GLN104      0.0905
     73  CD       -19.6390   20.8610   38.9730 C.2   104  GLN104      0.2608
     74  OE1      -19.1840   20.0810   38.1350 O.2   104  GLN104     -0.2717
     75  NE2      -20.4100   20.4630   39.9790 N.am  104  GLN104     -0.0878
     76  N        -19.5490   24.8050   35.0620 N.am  105  VAL105     -0.1980
     77  CA       -19.1920   25.0910   33.6860 C.3   105  VAL105      0.1595
     78  C        -18.6040   26.4850   33.6400 C.2   105  VAL105      0.2287
     79  O        -17.6250   26.7070   32.9460 O.2   105  VAL105     -0.2864
     80  CB       -20.3920   24.9440   32.6930 C.3   105  VAL105      0.0276
     81  CG1      -21.1410   23.6810   33.0010 C.3   105  VAL105      0.0022
     82  CG2      -21.2930   26.1600   32.7220 C.3   105  VAL105      0.0022
     83  N        -15.0930   26.3580   34.7560 N.3   108  LEU108     -0.1231
     84  CA       -14.2830   25.7870   33.6780 C.3   108  LEU108      0.1693
     85  C        -14.2110   26.6860   32.4340 C.2   108  LEU108      0.2591
     86  O        -13.1620   26.8180   31.8020 O.2   108  LEU108     -0.2718
     87  CB       -14.8320   24.4100   33.2900 C.3   108  LEU108      0.0284
     88  CG       -14.2990   23.2450   34.1290 C.3   108  LEU108      0.0019
     89  CD1      -15.2170   22.0560   34.0560 C.3   108  LEU108      0.0001
     90  CD2      -12.9240   22.8750   33.6430 C.3   108  LEU108      0.0001
     91  N        -15.3360   27.3010   32.0870 N.am  109  LYS109     -0.1980
     92  CA       -15.4230   28.1750   30.9250 C.3   109  LYS109      0.1596
     93  C        -14.3550   29.2830   30.9080 C.2   109  LYS109      0.2287
     94  O        -13.7730   29.5470   29.8700 O.2   109  LYS109     -0.2864
     95  CB       -16.8270   28.7870   30.8500 C.3   109  LYS109      0.0298
     96  CG       -17.0370   29.7440   29.6820 C.3   109  LYS109      0.0038
     97  CD       -18.2810   30.6010   29.8800 C.3   109  LYS109      0.0206
     98  CE       -18.5220   31.5200   28.6890 C.3   109  LYS109      0.1093
     99  NZ       -18.7590   30.7520   27.4160 N.3   109  LYS109     -0.1314
    100  N        -10.1210   27.3680   32.0520 N.3   112  VAL112     -0.1245
    101  CA        -9.4830   26.4900   31.0850 C.3   112  VAL112      0.1561
    102  C         -8.3290   27.0510   30.2460 C.2   112  VAL112      0.2260
    103  O         -7.2390   26.4930   30.2600 O.2   112  VAL112     -0.2867
    104  CB       -10.5480   25.8640   30.1810 C.3   112  VAL112      0.0252
    105  CG1       -9.9790   25.5600   28.8290 C.3   112  VAL112      0.0019
    106  CG2      -11.0610   24.5940   30.8370 C.3   112  VAL112      0.0019
    107  N        -13.7380   24.3680   16.3410 N.3   256  HIS256     -0.1227
    108  CA       -14.3940   23.2070   16.9510 C.3   256  HIS256      0.1737
    109  C        -15.4840   23.6360   17.9210 C.2   256  HIS256      0.2438
    110  O        -15.3770   24.6800   18.5770 O.2   256  HIS256     -0.2733
    111  CB       -13.3460   22.3510   17.6720 C.3   256  HIS256      0.0758
    112  CG       -13.8850   21.1080   18.3040 C.ar  256  HIS256      0.0818
    113  ND1      -14.7850   21.1310   19.3490 N.ar  256  HIS256     -0.2268
    114  CD2      -13.5780   19.8040   18.1020 C.ar  256  HIS256      0.1154
    115  CE1      -15.0000   19.8960   19.7690 C.ar  256  HIS256      0.1986
    116  NE2      -14.2770   19.0740   19.0300 N.ar  256  HIS256     -0.2212
    117  N        -16.5560   22.8350   18.0210 N.am  257  PRO257     -0.2718
    118  CA       -17.6940   23.1100   18.9060 C.3   257  PRO257      0.1535
    119  C        -17.4150   23.2500   20.4110 C.2   257  PRO257      0.2598
    120  O        -17.9900   24.1230   21.0660 O.2   257  PRO257     -0.2715
    121  CB       -18.6680   21.9690   18.5900 C.3   257  PRO257      0.0310
    122  CG       -17.7750   20.8750   18.1060 C.3   257  PRO257      0.0237
    123  CD       -16.7930   21.6130   17.2360 C.3   257  PRO257      0.0939
    124  N        -16.5550   22.4060   20.9680 N.am  258  LEU258     -0.1978
    125  CA       -16.2670   22.5160   22.3920 C.3   258  LEU258      0.1596
    126  C        -15.6860   23.9040   22.6490 C.2   258  LEU258      0.2287
    127  O        -16.1010   24.6130   23.5730 O.2   258  LEU258     -0.2864
    128  CB       -15.2530   21.4530   22.8310 C.3   258  LEU258      0.0297
    129  CG       -15.2480   21.1370   24.3350 C.3   258  LEU258      0.0022
    130  CD1      -14.0290   20.2810   24.6580 C.3   258  LEU258      0.0001
    131  CD2      -15.2280   22.4140   25.1590 C.3   258  LEU258      0.0001
    132  N        -18.2570   26.8810   22.1730 N.3   261  GLU261     -0.1231
    133  CA       -19.0810   27.2260   23.3120 C.3   261  GLU261      0.1699
    134  C        -18.3300   27.9100   24.4360 C.2   261  GLU261      0.2592
    135  O        -18.9320   28.5770   25.2580 O.2   261  GLU261     -0.2718
    136  CB       -19.8460   26.0160   23.8280 C.3   261  GLU261      0.0402
    137  CG       -19.0660   24.7730   23.9870 C.3   261  GLU261      0.1161
    138  CD       -19.9780   23.6150   24.3150 C.2   261  GLU261      0.3649
    139  OE1      -20.6830   23.1210   23.4090 O.co2 261  GLU261     -0.2457
    140  OE2      -20.0180   23.2100   25.4880 O.co2 261  GLU261     -0.2457
    141  N        -17.0090   27.7850   24.4440 N.am  262  ILE262     -0.1980
    142  CA       -16.1780   28.4150   25.4650 C.3   262  ILE262      0.1595
    143  C        -15.9250   29.9130   25.1810 C.2   262  ILE262      0.2287
    144  O        -16.1150   30.7700   26.0640 O.2   262  ILE262     -0.2864
    145  CB       -14.8350   27.6640   25.5750 C.3   262  ILE262      0.0276
    146  CG1      -15.0890   26.2980   26.2050 C.3   262  ILE262      0.0022
    147  CG2      -13.8090   28.4690   26.3900 C.3   262  ILE262      0.0022
    148  CD1      -13.8790   25.4130   26.2520 C.3   262  ILE262      0.0001
    149  N        -17.6330   31.7480   23.3440 N.3   264  ARG264     -0.1245
    150  CA       -18.9650   32.3600   23.2760 C.3   264  ARG264      0.1563
    151  C        -19.2270   33.2930   24.4710 C.2   264  ARG264      0.2260
    152  O        -19.4760   32.8290   25.5970 O.2   264  ARG264     -0.2867
    153  CB       -19.9830   31.2320   23.2610 C.3   264  ARG264      0.0307
    154  CG       -21.3250   31.4810   22.6230 C.3   264  ARG264      0.0489
    155  CD       -21.9070   30.0920   22.3710 C.3   264  ARG264      0.2205
    156  NE       -23.3310   30.0830   22.0860 N.pl3 264  ARG264     -0.0865
    157  CZ       -23.9860   29.0300   21.5990 C.cat 264  ARG264      0.5346
    158  NH1      -23.3260   27.8950   21.3480 N.pl3 264  ARG264      0.1354
    159  NH2      -25.2950   29.1210   21.3440 N.pl3 264  ARG264      0.1354
@<TRIPOS>BOND
     1   107   108    1
     2   108   111    1
     3   108   109    1
     4   123   117    1
     5   123   122    1
     6   111   112    1
     7   109   117   am
     8   109   110    2
     9   117   118    1
    10   114   112   ar
    11   114   116   ar
    12   122   121    1
    13   112   113   ar
    14   121   118    1
    15   118   119    1
    16   116   115   ar
    17   113   115   ar
    18   119   124   am
    19   119   120    2
    20   124   125    1
    21   159   157    1
    22   158   157    1
    23   157   156    2
    24   156   155    1
    25   132   133    1
    26   155   154    1
    27   125   126    1
    28   125   128    1
    29   154   153    1
    30   126   127    2
    31   128   129    1
    32   153   150    1
    33   150   149    1
    34   150   151    1
    35   133   136    1
    36   133   134    1
    37   139   138   ar
    38   136   137    1
    39   137   138    1
    40   138   140   ar
    41   129   130    1
    42   129   131    1
    43   134   141   am
    44   134   135    2
    45   141   142    1
    46   151   152    2
    47   143   142    1
    48   143   144    2
    49   142   145    1
    50   145   146    1
    51   145   147    1
    52   146   148    1
    53    13    12    1
    54     7     5    1
    55     5     6    1
    56     5     2    1
    57    12    14    1
    58    12     9    1
    59     1     2    1
    60    99    98    1
    61     8     9    1
    62     8     3   am
    63     2     3    1
    64     9    10    1
    65     3     4    2
    66    98    97    1
    67   105   104    1
    68    10    11    2
    69    96    97    1
    70    96    95    1
    71    94    93    2
    72   104   106    1
    73   104   101    1
    74   102   103    2
    75   102   101    1
    76    95    92    1
    77    93    92    1
    78    92    91    1
    79   101   100    1
    80    20    19    1
    81    86    85    2
    82    91    85   am
    83    19    21    1
    84    19    16    1
    85    85    84    1
    86    80    82    1
    87    80    81    1
    88    80    77    1
    89    15    16    1
    90    79    78    2
    91    27    28    1
    92    27    26    1
    93    87    84    1
    94    87    88    1
    95    16    17    1
    96    30    28   ar
    97    78    77    1
    98    90    88    1
    99    84    83    1
   100    77    76    1
   101    28    29   ar
   102    22    17   am
   103    22    23    1
   104    89    88    1
   105    26    23    1
   106    17    18    2
   107    39    38    1
   108    23    24    1
   109    76    69   am
   110    65    64    2
   111    70    69    2
   112    38    37    1
   113    62    61    2
   114    69    68    1
   115    24    25    2
   116    64    63    1
   117    64    66   am
   118    37    36    1
   119    60    61    1
   120    60    63    1
   121    60    59    1
   122    54    53    2
   123    57    56    1
   124    53    59   am
   125    53    52    1
   126    55    56    1
   127    55    52    1
   128    36    35    1
   129    68    71    1
   130    68    67    1
   131    58    56    1
   132    71    72    1
   133    52    51    1
   134    50    49   ar
   135    50    48   ar
   136    74    73    2
   137    49    47   ar
   138    35    32    1
   139    31    32    1
   140    72    73    1
   141    48    46   ar
   142    73    75   am
   143    32    33    1
   144    47    45   ar
   145    46    45   ar
   146    45    44    1
   147    33    34    2
   148    44    41    1
   149    43    42    2
   150    42    41    1
   151    41    40    1
