@<TRIPOS>MOLECULE
tmp/2nphA00.pdb
 89 84 0 0 0
SMALL
GASTEIGER

@<TRIPOS>ATOM
      1  N         -9.9990   24.1210   30.2990 N.3    25  ASP25      -0.1239
      2  CA       -10.5810   22.9260   29.6570 C.3    25  ASP25       0.1674
      3  C        -11.9350   22.5690   30.2580 C.2    25  ASP25       0.2266
      4  O        -11.9980   21.9800   31.3440 O.2    25  ASP25      -0.2867
      5  CB        -9.6630   21.7590   29.9070 C.3    25  ASP25       0.1410
      6  CG       -10.1260   20.4900   29.2090 C.2    25  ASP25       0.3668
      7  OD1       -9.4390   19.4390   29.3290 O.co2  25  ASP25      -0.2456
      8  OD2      -11.1710   20.5740   28.5290 O.co2  25  ASP25      -0.2456
      9  N        -13.8590   20.4980   29.3340 N.3    27  GLY27      -0.1210
     10  CA       -14.1120   19.0560   29.3220 C.3    27  GLY27       0.1956
     11  C        -13.4450   18.3030   30.4880 C.2    27  GLY27       0.2612
     12  O        -13.6120   17.0800   30.6530 O.2    27  GLY27      -0.2717
     13  N        -12.7020   19.0370   31.3150 N.am   28  ALA28      -0.1965
     14  CA       -12.0130   18.4330   32.4410 C.3    28  ALA28       0.1728
     15  C        -12.7410   18.6720   33.7510 C.2    28  ALA28       0.2616
     16  O        -13.0500   19.8180   34.1340 O.2    28  ALA28      -0.2715
     17  CB       -10.5460   19.0230   32.5590 C.3    28  ALA28       0.0334
     18  N        -13.0180   17.5950   34.4670 N.am   29  ASP29      -0.1957
     19  CA       -13.7270   17.7580   35.7280 C.3    29  ASP29       0.1840
     20  C        -12.7580   18.4000   36.7190 C.2    29  ASP29       0.2622
     21  O        -13.1290   19.2290   37.5230 O.2    29  ASP29      -0.2715
     22  CB       -14.0710   16.3960   36.3280 C.3    29  ASP29       0.1450
     23  CG       -15.0740   15.6060   35.4700 C.2    29  ASP29       0.3671
     24  OD1      -15.8960   16.2830   34.8320 O.co2  29  ASP29      -0.2456
     25  OD2      -15.0110   14.3700   35.4670 O.co2  29  ASP29      -0.2456
     26  N        -11.5330   17.9420   36.6170 N.am   30  ASP30      -0.1971
     27  CA       -10.4720   18.3610   37.5070 C.3    30  ASP30       0.1709
     28  C         -9.3030   19.0780   36.8720 C.2    30  ASP30       0.2293
     29  O         -9.0310   18.9660   35.6630 O.2    30  ASP30      -0.2864
     30  CB        -9.9030   17.1580   38.2480 C.3    30  ASP30       0.1436
     31  CG       -10.9840   16.3360   38.9840 C.2    30  ASP30       0.3671
     32  OD1      -11.8890   16.9220   39.6030 O.co2  30  ASP30      -0.2456
     33  OD2      -10.8760   15.1050   38.9290 O.co2  30  ASP30      -0.2456
     34  N         -5.3010   19.4640   36.5070 N.3    32  VAL32      -0.1245
     35  CA        -4.1080   18.6150   36.5670 C.3    32  VAL32       0.1561
     36  C         -2.8890   19.3030   35.9700 C.2    32  VAL32       0.2260
     37  O         -2.9110   19.7780   34.8620 O.2    32  VAL32      -0.2867
     38  CB        -4.3560   17.2720   35.8550 C.3    32  VAL32       0.0252
     39  CG1       -4.6840   17.4870   34.4220 C.3    32  VAL32       0.0019
     40  CG2       -3.1210   16.4080   35.9780 C.3    32  VAL32       0.0019
     41  N         -4.2080    9.1120   43.7280 N.3    45  LYS45      -0.1231
     42  CA        -5.4710    9.1620   42.9990 C.3    45  LYS45       0.1693
     43  C         -5.1930    8.8530   41.5520 C.2    45  LYS45       0.2592
     44  O         -4.0480    8.9150   41.1240 O.2    45  LYS45      -0.2718
     45  CB        -6.1280   10.5450   43.1490 C.3    45  LYS45       0.0285
     46  CG        -7.5700   10.6140   42.6430 C.3    45  LYS45       0.0035
     47  CD        -8.2480   11.9040   43.0510 C.3    45  LYS45       0.0206
     48  CE        -9.7210   11.9230   42.6650 C.3    45  LYS45       0.1093
     49  NZ        -9.9360   11.8130   41.1910 N.3    45  LYS45      -0.1314
     50  N         -6.2240    8.4720   40.8040 N.am   46  MET46      -0.1965
     51  CA        -6.0450    8.1570   39.3920 C.3    46  MET46       0.1736
     52  C         -7.1420    8.8180   38.5850 C.2    46  MET46       0.2616
     53  O         -8.3000    8.8110   38.9850 O.2    46  MET46      -0.2715
     54  CB        -6.0650    6.6400   39.1630 C.3    46  MET46       0.0427
     55  CG        -5.0050    5.8750   39.9600 C.3    46  MET46       0.0599
     56  SD        -4.6730    4.2590   39.2160 S.3    46  MET46      -0.1393
     57  CE        -3.2490    4.6740   38.2150 C.3    46  MET46       0.0692
     58  N         -6.7830    9.3950   37.4490 N.am   47  ILE47      -0.1963
     59  CA        -7.7480   10.0920   36.6020 C.3    47  ILE47       0.1727
     60  C         -7.6720    9.5340   35.1900 C.2    47  ILE47       0.2617
     61  O         -6.6400    9.0260   34.7860 O.2    47  ILE47      -0.2715
     62  CB        -7.4610   11.6220   36.5430 C.3    47  ILE47       0.0290
     63  CG1       -6.0360   11.8770   36.0660 C.3    47  ILE47       0.0022
     64  CG2       -7.6650   12.2430   37.8900 C.3    47  ILE47       0.0023
     65  CD1       -5.8080   13.3070   35.6320 C.3    47  ILE47       0.0001
     66  N         -8.7550    9.6390   34.4260 N.am   48  GLY48      -0.1940
     67  CA        -8.7010    9.1140   33.0760 C.3    48  GLY48       0.2014
     68  C         -8.9380   10.1370   31.9810 C.2    48  GLY48       0.2639
     69  O         -9.2560   11.2970   32.2470 O.2    48  GLY48      -0.2714
     70  N         -8.7560    9.7010   30.7410 N.am   49  GLY49      -0.1939
     71  CA        -9.0010   10.5700   29.6010 C.3    49  GLY49       0.2014
     72  C         -8.8730    9.7270   28.3550 C.2    49  GLY49       0.2638
     73  O         -8.9730    8.5180   28.4200 O.2    49  GLY49      -0.2714
     74  N         -8.6740   10.3650   27.2170 N.am   50  ILE50      -0.1977
     75  CA        -8.4920    9.6650   25.9680 C.3    50  ILE50       0.1596
     76  C         -7.0780    9.0810   25.9830 C.2    50  ILE50       0.2287
     77  O         -6.1270    9.7830   26.3010 O.2    50  ILE50      -0.2864
     78  CB        -8.6270   10.6560   24.7980 C.3    50  ILE50       0.0276
     79  CG1      -10.1060   10.9490   24.5730 C.3    50  ILE50       0.0022
     80  CG2       -7.9460   10.1280   23.5520 C.3    50  ILE50       0.0022
     81  CD1      -10.3850   11.6970   23.2950 C.3    50  ILE50       0.0001
     82  N         -3.8000   21.6050   32.8610 N.3    84  ILE84      -0.1245
     83  CA        -5.2250   21.7470   32.5450 C.3    84  ILE84       0.1561
     84  C         -5.9580   22.3650   33.7210 C.2    84  ILE84       0.2260
     85  O         -5.8360   21.9190   34.8700 O.2    84  ILE84      -0.2867
     86  CB        -5.8700   20.3400   32.2820 C.3    84  ILE84       0.0252
     87  CG1       -5.3720   19.7730   30.9240 C.3    84  ILE84       0.0019
     88  CG2       -7.4350   20.4760   32.2020 C.3    84  ILE84       0.0019
     89  CD1       -5.3950   18.2390   30.9040 C.3    84  ILE84       0.0001
@<TRIPOS>BOND
     1    81    79    1
     2    80    78    1
     3    79    78    1
     4    78    75    1
     5    75    76    1
     6    75    74    1
     7    76    77    2
     8    74    72   am
     9    72    73    2
    10    72    71    1
    11     8     6   ar
    12     6     7   ar
    13     6     5    1
    14    10     9    1
    15    10    11    1
    16    71    70    1
    17     2     5    1
    18     2     3    1
    19     2     1    1
    20     3     4    2
    21    11    12    2
    22    11    13   am
    23    70    68   am
    24    89    87    1
    25    87    86    1
    26    13    14    1
    27    68    69    2
    28    68    67    1
    29    88    86    1
    30    86    83    1
    31    14    17    1
    32    14    15    1
    33    83    82    1
    34    83    84    1
    35    67    66    1
    36    84    85    2
    37    15    16    2
    38    15    18   am
    39    39    38    1
    40    66    60   am
    41    18    19    1
    42    61    60    2
    43    24    23   ar
    44    37    36    2
    45    60    59    1
    46    25    23   ar
    47    23    22    1
    48    65    63    1
    49    29    28    2
    50    19    22    1
    51    19    20    1
    52    38    40    1
    53    38    35    1
    54    36    35    1
    55    63    62    1
    56    34    35    1
    57    62    59    1
    58    62    64    1
    59    59    58    1
    60    26    20   am
    61    26    27    1
    62    20    21    2
    63    28    27    1
    64    58    52   am
    65    27    30    1
    66    57    56    1
    67    30    31    1
    68    52    53    2
    69    52    51    1
    70    33    31   ar
    71    31    32   ar
    72    54    51    1
    73    54    55    1
    74    56    55    1
    75    51    50    1
    76    50    43   am
    77    44    43    2
    78    49    48    1
    79    43    42    1
    80    46    47    1
    81    46    45    1
    82    48    47    1
    83    42    45    1
    84    42    41    1
