@<TRIPOS>MOLECULE
tmp/2nphB00.pdb
 100 95 0 0 0
SMALL
GASTEIGER

@<TRIPOS>ATOM
      1  N        -15.9200   20.6990   24.8670 N.3    25  ASP25      -0.1239
      2  CA       -14.5730   20.6410   25.5010 C.3    25  ASP25       0.1674
      3  C        -13.5750   21.6730   24.9320 C.2    25  ASP25       0.2266
      4  O        -13.0160   21.4520   23.8500 O.2    25  ASP25      -0.2867
      5  CB       -14.0100   19.2660   25.2280 C.3    25  ASP25       0.1410
      6  CG       -12.6550   19.0500   25.9170 C.2    25  ASP25       0.3668
      7  OD1      -12.0550   17.9580   25.8310 O.co2  25  ASP25      -0.2456
      8  OD2      -12.2150   19.9900   26.5670 O.co2  25  ASP25      -0.2456
      9  N        -10.7560   22.1990   25.8480 N.3    27  GLY27      -0.1210
     10  CA        -9.3890   21.6800   25.8390 C.3    27  GLY27       0.1956
     11  C         -9.1280   20.7510   24.6780 C.2    27  GLY27       0.2612
     12  O         -8.0260   20.2320   24.5050 O.2    27  GLY27      -0.2717
     13  N        -10.1480   20.5440   23.8440 N.am   28  ALA28      -0.1965
     14  CA        -9.9860   19.6320   22.7390 C.3    28  ALA28       0.1728
     15  C         -9.8300   20.3780   21.4210 C.2    28  ALA28       0.2616
     16  O        -10.6480   21.2020   21.0550 O.2    28  ALA28      -0.2715
     17  CB       -11.2530   18.6520   22.6680 C.3    28  ALA28       0.0334
     18  N         -8.7490   20.1110   20.7040 N.am   29  ASP29      -0.1957
     19  CA        -8.5280   20.7820   19.4240 C.3    29  ASP29       0.1840
     20  C         -9.5700   20.3100   18.4260 C.2    29  ASP29       0.2622
     21  O        -10.1010   21.0920   17.6250 O.2    29  ASP29      -0.2715
     22  CB        -7.1740   20.3710   18.8220 C.3    29  ASP29       0.1450
     23  CG        -5.9690   20.8940   19.6340 C.2    29  ASP29       0.3671
     24  OD1       -4.8580   20.3720   19.4580 O.co2  29  ASP29      -0.2456
     25  OD2       -6.1730   21.8250   20.4380 O.co2  29  ASP29      -0.2456
     26  N         -9.7620   18.9950   18.5120 N.am   30  ASP30      -0.1971
     27  CA       -10.6190   18.1880   17.6220 C.3    30  ASP30       0.1709
     28  C        -11.8630   17.5780   18.2800 C.2    30  ASP30       0.2293
     29  O        -11.9160   17.3450   19.4970 O.2    30  ASP30      -0.2864
     30  CB        -9.8360   16.9890   17.0660 C.3    30  ASP30       0.1436
     31  CG        -8.4700   17.3600   16.4200 C.2    30  ASP30       0.3671
     32  OD1       -7.6200   16.4750   16.3870 O.co2  30  ASP30      -0.2456
     33  OD2       -8.2450   18.4830   15.9640 O.co2  30  ASP30      -0.2456
     34  N        -14.2010   14.3450   18.7180 N.3    32  VAL32      -0.1245
     35  CA       -14.0210   12.8980   18.6920 C.3    32  VAL32       0.1561
     36  C        -15.2450   12.1910   19.2270 C.2    32  VAL32       0.2260
     37  O        -15.6680   12.4320   20.3300 O.2    32  VAL32      -0.2867
     38  CB       -12.8350   12.4880   19.5780 C.3    32  VAL32       0.0252
     39  CG1      -12.5240   11.0300   19.3010 C.3    32  VAL32       0.0019
     40  CG2      -11.6760   13.4150   19.3710 C.3    32  VAL32       0.0019
     41  N         -5.7830    7.8480   11.8000 N.3    45  LYS45      -0.1231
     42  CA        -5.1460    8.9450   12.4930 C.3    45  LYS45       0.1693
     43  C         -5.0500    8.5870   13.9540 C.2    45  LYS45       0.2592
     44  O         -5.7340    7.6900   14.4120 O.2    45  LYS45      -0.2718
     45  CB        -5.9540   10.2350   12.3140 C.3    45  LYS45       0.0285
     46  CG        -5.2410   11.4900   12.8030 C.3    45  LYS45       0.0035
     47  CD        -6.1440   12.7120   12.7300 C.3    45  LYS45       0.0206
     48  CE        -5.3840   14.0250   12.9610 C.3    45  LYS45       0.1093
     49  NZ        -4.8580   14.1940   14.3520 N.3    45  LYS45      -0.1314
     50  N         -4.1670    9.2640   14.6790 N.am   46  MET46      -0.1965
     51  CA        -3.9970    9.0180   16.1080 C.3    46  MET46       0.1736
     52  C         -4.0270   10.3460   16.8470 C.2    46  MET46       0.2616
     53  O         -3.3410   11.2880   16.4670 O.2    46  MET46      -0.2715
     54  CB        -2.6790    8.2840   16.3840 C.3    46  MET46       0.0427
     55  CG        -2.5660    6.9370   15.6630 C.3    46  MET46       0.0599
     56  SD        -1.4500    5.7620   16.4600 S.3    46  MET46      -0.1393
     57  CE        -2.6690    4.7670   17.4440 C.3    46  MET46       0.0692
     58  N         -4.8330   10.4240   17.8930 N.am   47  ILE47      -0.1963
     59  CA        -4.9300   11.6500   18.6500 C.3    47  ILE47       0.1727
     60  C         -4.4470   11.3750   20.0470 C.2    47  ILE47       0.2617
     61  O         -4.5590   10.2570   20.5440 O.2    47  ILE47      -0.2715
     62  CB        -6.3840   12.1640   18.7500 C.3    47  ILE47       0.0290
     63  CG1       -7.2830   11.0260   19.2180 C.3    47  ILE47       0.0022
     64  CG2       -6.8130   12.7780   17.4410 C.3    47  ILE47       0.0023
     65  CD1       -8.6250   11.4600   19.6360 C.3    47  ILE47       0.0001
     66  N         -3.9460   12.4080   20.7050 N.am   48  GLY48      -0.1940
     67  CA        -3.4620   12.1980   22.0590 C.3    48  GLY48       0.2014
     68  C         -4.3540   12.7460   23.1540 C.2    48  GLY48       0.2639
     69  O         -5.1700   13.6590   22.9470 O.2    48  GLY48      -0.2714
     70  N         -4.1930   12.1750   24.3360 N.am   49  GLY49      -0.1939
     71  CA        -4.9570   12.6330   25.4730 C.3    49  GLY49       0.2014
     72  C         -4.1470   12.4700   26.7430 C.2    49  GLY49       0.2638
     73  O         -2.9790   12.1020   26.7220 O.2    49  GLY49      -0.2714
     74  N         -4.7820   12.7160   27.8690 N.am   50  ILE50      -0.1977
     75  CA        -4.1030   12.6030   29.1250 C.3    50  ILE50       0.1596
     76  C         -3.5900   11.1900   29.4300 C.2    50  ILE50       0.2287
     77  O         -2.5420   11.0280   30.0650 O.2    50  ILE50      -0.2864
     78  CB        -5.0200   13.1140   30.2510 C.3    50  ILE50       0.0276
     79  CG1       -4.1860   13.5080   31.4620 C.3    50  ILE50       0.0022
     80  CG2       -6.0150   12.0460   30.6550 C.3    50  ILE50       0.0022
     81  CD1       -4.7970   14.6570   32.1970 C.3    50  ILE50       0.0001
     82  N         -2.4650    7.6690   23.7580 N.3    53  PHE53      -0.1241
     83  CA        -3.0140    7.8580   22.4180 C.3    53  PHE53       0.1605
     84  C         -4.0550    6.8110   21.9830 C.2    53  PHE53       0.2264
     85  O         -4.0780    5.6840   22.4780 O.2    53  PHE53      -0.2867
     86  CB        -1.8770    7.8600   21.3830 C.3    53  PHE53       0.0534
     87  CG        -0.9600    9.0670   21.4550 C.ar   53  PHE53      -0.0203
     88  CD1       -0.1040    9.2610   22.5500 C.ar   53  PHE53      -0.0042
     89  CD2       -0.9360   10.0070   20.4140 C.ar   53  PHE53      -0.0042
     90  CE1        0.7690   10.3590   22.5930 C.ar   53  PHE53      -0.0003
     91  CE2       -0.0660   11.1040   20.4560 C.ar   53  PHE53      -0.0003
     92  CZ         0.7840   11.2810   21.5500 C.ar   53  PHE53      -0.0000
     93  N        -16.8190   14.0200   22.3520 N.3    84  ILE84      -0.1245
     94  CA       -16.2620   15.3140   22.6420 C.3    84  ILE84       0.1561
     95  C        -16.4040   16.2650   21.4580 C.2    84  ILE84       0.2260
     96  O        -16.0230   15.9370   20.3230 O.2    84  ILE84      -0.2867
     97  CB       -14.7760   15.2020   22.9500 C.3    84  ILE84       0.0252
     98  CG1      -14.5520   14.4990   24.3240 C.3    84  ILE84       0.0019
     99  CG2      -14.1820   16.6310   22.9320 C.3    84  ILE84       0.0019
    100  CD1      -13.1420   13.8620   24.4190 C.3    84  ILE84       0.0001
@<TRIPOS>BOND
     1    41    42    1
     2    45    42    1
     3    45    46    1
     4    42    43    1
     5    47    46    1
     6    47    48    1
     7    48    49    1
     8    43    44    2
     9    43    50   am
    10    50    51    1
    11    55    54    1
    12    55    56    1
    13    33    31   ar
    14    51    54    1
    15    51    52    1
    16    32    31   ar
    17    31    30    1
    18    56    57    1
    19    53    52    2
    20    52    58   am
    21    30    27    1
    22    64    62    1
    23    27    28    1
    24    27    26    1
    25    21    20    2
    26    58    59    1
    27    28    29    2
    28    20    26   am
    29    20    19    1
    30    59    62    1
    31    59    60    1
    32    35    34    1
    33    35    36    1
    34    35    38    1
    35    62    63    1
    36    22    19    1
    37    22    23    1
    38    63    65    1
    39    36    37    2
    40    39    38    1
    41    40    38    1
    42    19    18    1
    43    24    23   ar
    44    23    25   ar
    45    60    61    2
    46    60    66   am
    47    96    95    2
    48    89    91   ar
    49    89    87   ar
    50    91    92   ar
    51    18    15   am
    52    66    67    1
    53    16    15    2
    54    86    87    1
    55    86    83    1
    56    15    14    1
    57    87    88   ar
    58    95    94    1
    59    92    90   ar
    60    84    83    1
    61    84    85    2
    62    67    68    1
    63    93    94    1
    64    83    82    1
    65    88    90   ar
    66    94    97    1
    67    17    14    1
    68    14    13    1
    69    99    97    1
    70    69    68    2
    71    97    98    1
    72    68    70   am
    73    13    11   am
    74     4     3    2
    75    98   100    1
    76    70    71    1
    77    12    11    2
    78    11    10    1
    79     1     2    1
    80     3     2    1
    81     5     2    1
    82     5     6    1
    83    71    72    1
    84     7     6   ar
    85    10     9    1
    86     6     8   ar
    87    73    72    2
    88    72    74   am
    89    74    75    1
    90    75    76    1
    91    75    78    1
    92    76    77    2
    93    78    80    1
    94    78    79    1
    95    79    81    1
