@<TRIPOS>MOLECULE
tmp/2npmA00.pdb
 165 156 0 0 0
SMALL
GASTEIGER

@<TRIPOS>ATOM
      1  N         10.7900   28.6630   30.5610 N.3    55  LYS55      -0.1245
      2  CA        11.1620   29.4600   31.6950 C.3    55  LYS55       0.1561
      3  C         12.6990   29.5090   31.8900 C.2    55  LYS55       0.2260
      4  O         13.2500   30.5720   32.1440 O.2    55  LYS55      -0.2867
      5  CB        10.4740   28.9150   32.9280 C.3    55  LYS55       0.0271
      6  CG        10.6220   29.7520   34.1360 C.3    55  LYS55       0.0035
      7  CD         9.3400   30.6270   34.3810 C.3    55  LYS55       0.0206
      8  CE         9.6100   31.7850   35.3700 C.3    55  LYS55       0.1093
      9  NZ        10.3930   31.3790   36.6120 N.3    55  LYS55      -0.1314
     10  N         17.5090   36.3410   30.6820 N.3    62  ARG62      -0.1245
     11  CA        17.0240   37.5020   31.4740 C.3    62  ARG62       0.1563
     12  C         18.1040   37.8930   32.4510 C.2    62  ARG62       0.2260
     13  O         18.4450   39.1030   32.6200 O.2    62  ARG62      -0.2867
     14  CB        15.7210   37.2250   32.2250 C.3    62  ARG62       0.0307
     15  CG        14.4870   37.1960   31.3380 C.3    62  ARG62       0.0489
     16  CD        13.2950   36.5830   32.0780 C.3    62  ARG62       0.2205
     17  NE        12.6460   37.5080   33.0010 N.pl3  62  ARG62      -0.0865
     18  CZ        11.9890   37.1400   34.1090 C.cat  62  ARG62       0.5346
     19  NH1       11.8990   35.8550   34.4350 N.pl3  62  ARG62       0.1354
     20  NH2       11.4040   38.0600   34.8870 N.pl3  62  ARG62       0.1354
     21  N         -2.1150   32.8320   31.7090 N.3   128  LYS128     -0.1245
     22  CA        -1.0710   33.3360   32.5690 C.3   128  LYS128      0.1561
     23  C          0.2830   33.2430   31.8380 C.2   128  LYS128      0.2260
     24  O          1.0990   34.2030   31.8170 O.2   128  LYS128     -0.2867
     25  CB        -1.0310   32.5650   33.8790 C.3   128  LYS128      0.0271
     26  CG         0.1670   32.9140   34.7190 C.3   128  LYS128      0.0035
     27  CD         0.3690   31.9590   35.9130 C.3   128  LYS128      0.0206
     28  CE         1.7930   32.0360   36.3860 C.3   128  LYS128      0.1093
     29  NZ         2.6920   31.3000   35.4180 N.3   128  LYS128     -0.1314
     30  N          5.1690   39.9680   29.2210 N.3   135  ARG135     -0.1231
     31  CA         5.9010   40.6480   30.2940 C.3   135  ARG135      0.1694
     32  C          7.4400   40.5510   30.1140 C.2   135  ARG135      0.2592
     33  O          8.1430   41.5760   30.2040 O.2   135  ARG135     -0.2718
     34  CB         5.4480   40.1620   31.6830 C.3   135  ARG135      0.0321
     35  CG         6.3250   40.6930   32.8390 C.3   135  ARG135      0.0489
     36  CD         5.6620   40.5090   34.1930 C.3   135  ARG135      0.2205
     37  NE         5.3680   39.1090   34.4750 N.pl3 135  ARG135     -0.0865
     38  CZ         6.2280   38.3020   35.0860 C.cat 135  ARG135      0.5346
     39  NH1        7.4150   38.8070   35.4470 N.pl3 135  ARG135      0.1354
     40  NH2        5.9110   37.0070   35.3230 N.pl3 135  ARG135      0.1354
     41  N          7.9640   39.3540   29.8240 N.am  136  TYR136     -0.1976
     42  CA         9.4000   39.2370   29.5790 C.3   136  TYR136      0.1639
     43  C          9.8770   40.1650   28.4550 C.2   136  TYR136      0.2290
     44  O         10.8980   40.8350   28.6120 O.2   136  TYR136     -0.2864
     45  CB         9.8500   37.7950   29.3840 C.3   136  TYR136      0.0560
     46  CG         9.4040   36.8820   30.5190 C.ar  136  TYR136     -0.0198
     47  CD1        9.3300   37.3380   31.8290 C.ar  136  TYR136     -0.0009
     48  CD2        9.0980   35.5450   30.2840 C.ar  136  TYR136     -0.0009
     49  CE1        8.9580   36.4920   32.8410 C.ar  136  TYR136      0.0417
     50  CE2        8.7160   34.7230   31.2800 C.ar  136  TYR136      0.0417
     51  CZ         8.6360   35.1940   32.5470 C.ar  136  TYR136      0.1957
     52  OH         8.2030   34.3480   33.5510 O.3   136  TYR136     -0.2866
     53  N         -3.5360   26.8810   43.7350 N.3   172  PRO172     -0.2102
     54  CA        -2.1890   27.2980   43.3570 C.3   172  PRO172      0.1504
     55  C         -2.1210   28.0140   42.0140 C.2   172  PRO172      0.2575
     56  O         -1.3180   28.9620   41.8470 O.2   172  PRO172     -0.2718
     57  CB        -1.4020   25.9810   43.3020 C.3   172  PRO172      0.0282
     58  CG        -2.1180   25.0940   44.2830 C.3   172  PRO172      0.0208
     59  CD        -3.5820   25.4470   44.0900 C.3   172  PRO172      0.0893
     60  N         -2.9360   27.5950   41.0550 N.am  173  ILE173     -0.1980
     61  CA        -2.8730   28.2950   39.7710 C.3   173  ILE173      0.1595
     62  C         -3.4210   29.7210   39.8940 C.2   173  ILE173      0.2287
     63  O         -2.8070   30.6690   39.3750 O.2   173  ILE173     -0.2864
     64  CB        -3.3880   27.4560   38.5730 C.3   173  ILE173      0.0276
     65  CG1       -2.3260   26.4010   38.2230 C.3   173  ILE173      0.0022
     66  CG2       -3.5190   28.3390   37.3480 C.3   173  ILE173      0.0022
     67  CD1       -2.8780   25.0030   37.9740 C.3   173  ILE173      0.0001
     68  N         -0.7410   31.8600   41.9420 N.3   176  GLY176     -0.1225
     69  CA         0.3760   32.1450   41.0490 C.3   176  GLY176      0.1811
     70  C          0.0050   33.1640   40.0130 C.2   176  GLY176      0.2280
     71  O          0.8340   33.9850   39.6250 O.2   176  GLY176     -0.2866
     72  N          0.2370   36.5700   41.9440 N.3   179  LEU179     -0.1231
     73  CA         1.6440   36.8910   42.1820 C.3   179  LEU179      0.1693
     74  C          2.2880   37.5270   40.9490 C.2   179  LEU179      0.2592
     75  O          2.8510   38.6280   41.0480 O.2   179  LEU179     -0.2718
     76  CB         2.4100   35.6230   42.5780 C.3   179  LEU179      0.0284
     77  CG         3.8660   35.6930   43.0210 C.3   179  LEU179      0.0019
     78  CD1        4.0930   36.4180   44.3810 C.3   179  LEU179      0.0001
     79  CD2        4.3930   34.2790   43.1020 C.3   179  LEU179      0.0001
     80  N          2.1860   36.8680   39.7900 N.am  180  ASN180     -0.1974
     81  CA         2.7910   37.3860   38.5610 C.3   180  ASN180      0.1688
     82  C          2.0540   38.6280   38.0460 C.2   180  ASN180      0.2292
     83  O          2.6720   39.5880   37.5650 O.2   180  ASN180     -0.2864
     84  CB         2.7830   36.3070   37.4670 C.3   180  ASN180      0.1181
     85  CG         3.8400   35.2040   37.6790 C.2   180  ASN180      0.2629
     86  OD1        4.4100   35.0400   38.7620 O.2   180  ASN180     -0.2716
     87  ND2        4.1080   34.4420   36.6110 N.am  180  ASN180     -0.0877
     88  N          3.2020   41.4700   40.1710 N.3   183  VAL183     -0.1245
     89  CA         4.5680   41.7560   39.7700 C.3   183  VAL183      0.1561
     90  C          4.5520   42.5710   38.4720 C.2   183  VAL183      0.2260
     91  O          5.2390   43.6020   38.3440 O.2   183  VAL183     -0.2867
     92  CB         5.3830   40.4330   39.6080 C.3   183  VAL183      0.0252
     93  CG1        6.6870   40.6820   38.8720 C.3   183  VAL183      0.0019
     94  CG2        5.6420   39.7820   41.0120 C.3   183  VAL183      0.0019
     95  N          6.3050   46.1780   38.1650 N.3   187  GLU187     -0.1245
     96  CA         7.5860   46.2800   37.4510 C.3   187  GLU187      0.1567
     97  C          7.4340   46.8610   36.0540 C.2   187  GLU187      0.2260
     98  O          8.2660   47.6550   35.6190 O.2   187  GLU187     -0.2867
     99  CB         8.2970   44.9310   37.4040 C.3   187  GLU187      0.0388
    100  CG         8.9310   44.4840   38.7280 C.3   187  GLU187      0.1160
    101  CD        10.2950   45.0810   38.9900 C.2   187  GLU187      0.3649
    102  OE1       10.7870   45.8940   38.2360 O.co2 187  GLU187     -0.2457
    103  OE2       10.8340   44.6210   40.0260 O.co2 187  GLU187     -0.2457
    104  N          3.5400   28.1510   49.9920 N.3   223  LEU223     -0.1231
    105  CA         4.6930   28.6930   49.2750 C.3   223  LEU223      0.1693
    106  C          4.3030   29.9950   48.6100 C.2   223  LEU223      0.2591
    107  O          4.9310   31.0270   48.8420 O.2   223  LEU223     -0.2718
    108  CB         5.1460   27.7360   48.1770 C.3   223  LEU223      0.0284
    109  CG         6.6460   27.5390   48.1490 C.3   223  LEU223      0.0019
    110  CD1        6.8830   26.1640   48.8300 C.3   223  LEU223      0.0001
    111  CD2        7.2990   27.6200   46.7230 C.3   223  LEU223      0.0001
    112  N          3.2510   29.9470   47.7910 N.am  224  ILE224     -0.1980
    113  CA         2.8350   31.1210   46.9920 C.3   224  ILE224      0.1595
    114  C          2.2910   32.2220   47.8650 C.2   224  ILE224      0.2287
    115  O          2.5690   33.3950   47.6200 O.2   224  ILE224     -0.2864
    116  CB         1.8030   30.7840   45.8880 C.3   224  ILE224      0.0276
    117  CG1        2.3550   29.7180   44.9340 C.3   224  ILE224      0.0022
    118  CG2        1.4770   32.0130   45.0810 C.3   224  ILE224      0.0022
    119  CD1        1.2590   28.9950   44.1820 C.3   224  ILE224      0.0001
    120  N          5.3010   33.9750   49.0580 N.3   227  LEU227     -0.1245
    121  CA         5.9330   34.9200   48.1030 C.3   227  LEU227      0.1561
    122  C          5.1090   36.1850   47.9890 C.2   227  LEU227      0.2260
    123  O          5.6660   37.3020   47.9290 O.2   227  LEU227     -0.2867
    124  CB         6.2050   34.2990   46.7320 C.3   227  LEU227      0.0270
    125  CG         7.0410   32.9950   46.7300 C.3   227  LEU227      0.0019
    126  CD1        6.9860   32.3780   45.3820 C.3   227  LEU227      0.0001
    127  CD2        8.5140   33.1340   47.1880 C.3   227  LEU227      0.0001
    128  N          6.1140   38.2390   51.0160 N.3   230  ASP230     -0.1225
    129  CA         7.4490   38.7650   50.7730 C.3   230  ASP230      0.1805
    130  C          7.4430   39.9590   49.8360 C.2   230  ASP230      0.2597
    131  O          8.1230   40.9360   50.1110 O.2   230  ASP230     -0.2718
    132  CB         8.3680   37.6970   50.2280 C.3   230  ASP230      0.1424
    133  CG         8.7560   36.6660   51.2630 C.2   230  ASP230      0.3668
    134  OD1        8.4960   36.8570   52.4980 O.co2 230  ASP230     -0.2456
    135  OD2        9.3320   35.6500   50.8190 O.co2 230  ASP230     -0.2456
    136  N          6.6750   39.8920   48.7490 N.am  231  ASN231     -0.1974
    137  CA         6.5460   41.0090   47.8380 C.3   231  ASN231      0.1688
    138  C          5.8540   42.1910   48.5010 C.2   231  ASN231      0.2292
    139  O          6.3310   43.3350   48.4030 O.2   231  ASN231     -0.2864
    140  CB         5.8060   40.5820   46.5620 C.3   231  ASN231      0.1181
    141  CG         6.6820   39.7090   45.6410 C.2   231  ASN231      0.2629
    142  OD1        7.8830   39.5830   45.8670 O.2   231  ASN231     -0.2716
    143  ND2        6.0880   39.1350   44.5960 N.am  231  ASN231     -0.0877
    144  N          8.2250   43.9440   50.7330 N.3   234  LEU234     -0.1231
    145  CA         9.1950   44.7300   49.9880 C.3   234  LEU234      0.1693
    146  C          8.5460   45.9870   49.4450 C.2   234  LEU234      0.2592
    147  O          9.1070   47.0740   49.5470 O.2   234  LEU234     -0.2718
    148  CB         9.7610   43.8940   48.8470 C.3   234  LEU234      0.0284
    149  CG        10.6340   44.6040   47.8140 C.3   234  LEU234      0.0019
    150  CD1       12.0100   44.9790   48.3840 C.3   234  LEU234      0.0001
    151  CD2       10.7670   43.7340   46.5760 C.3   234  LEU234      0.0001
    152  N          7.3540   45.8420   48.8820 N.am  235  TRP235     -0.1976
    153  CA         6.7210   46.9460   48.1880 C.3   235  TRP235      0.1640
    154  C          6.2300   47.9540   49.1910 C.2   235  TRP235      0.2290
    155  O          6.0430   49.1380   48.8920 O.2   235  TRP235     -0.2864
    156  CB         5.5430   46.4340   47.3650 C.3   235  TRP235      0.0576
    157  CG         5.9370   45.6210   46.1780 C.ar  235  TRP235      0.0006
    158  CD1        7.1550   45.6090   45.5570 C.ar  235  TRP235      0.0946
    159  CD2        5.1040   44.7450   45.4370 C.ar  235  TRP235      0.0152
    160  NE1        7.1400   44.7550   44.4970 N.ar  235  TRP235     -0.2442
    161  CE2        5.8870   44.2110   44.3900 C.ar  235  TRP235      0.0810
    162  CE3        3.7890   44.3210   45.5740 C.ar  235  TRP235      0.0012
    163  CZ2        5.3840   43.2940   43.4650 C.ar  235  TRP235      0.0191
    164  CZ3        3.2850   43.4140   44.6370 C.ar  235  TRP235      0.0001
    165  CH2        4.0890   42.9170   43.5920 C.ar  235  TRP235      0.0015
@<TRIPOS>BOND
     1    43    44    2
     2    43    42    1
     3    30    31    1
     4    45    42    1
     5    45    46    1
     6    42    41    1
     7    41    32   am
     8    32    33    2
     9    32    31    1
    10    48    46   ar
    11    48    50   ar
    12    31    34    1
    13    46    47   ar
    14     1     2    1
    15    10    11    1
    16    50    51   ar
    17    15    16    1
    18    15    14    1
    19    11    14    1
    20    11    12    1
    21    34    35    1
    22     2     3    1
    23     2     5    1
    24    21    22    1
    25    24    23    2
    26    47    49   ar
    27    23    22    1
    28     3     4    2
    29    16    17    1
    30    12    13    2
    31    51    49   ar
    32    51    52    1
    33    22    25    1
    34    35    36    1
    35     5     6    1
    36    17    18    2
    37    25    26    1
    38    18    19    1
    39    18    20    1
    40     6     7    1
    41    36    37    1
    42     7     8    1
    43    37    38    2
    44    26    27    1
    45    38    40    1
    46    38    39    1
    47     8     9    1
    48    29    28    1
    49    98    97    2
    50    27    28    1
    51    97    96    1
    52    87    85   am
    53    66    64    1
    54    99    96    1
    55    99   100    1
    56    96    95    1
    57    84    85    1
    58    84    81    1
    59    83    82    2
    60    85    86    2
    61    67    65    1
    62    82    81    1
    63    65    64    1
    64   102   101   ar
    65    91    90    2
    66    90    89    1
    67    81    80    1
    68    64    61    1
    69   100   101    1
    70    93    92    1
    71   101   103   ar
    72    63    62    2
    73    92    89    1
    74    92    94    1
    75    71    70    2
    76    89    88    1
    77    61    62    1
    78    61    60    1
    79    80    74   am
    80    70    69    1
    81    74    75    2
    82    74    73    1
    83    69    68    1
    84    60    55   am
    85    56    55    2
    86    72    73    1
    87    55    54    1
    88    73    76    1
    89    76    77    1
    90    77    79    1
    91    77    78    1
    92    57    54    1
    93    57    58    1
    94    54    53    1
    95   163   165   ar
    96   163   161   ar
    97   165   164   ar
    98    53    59    1
    99    59    58    1
   100   119   117    1
   101   161   160   ar
   102   161   159   ar
   103   160   158   ar
   104   143   141   am
   105   164   162   ar
   106   117   116    1
   107   118   116    1
   108   126   125    1
   109   159   162   ar
   110   159   157   ar
   111   158   157   ar
   112   141   142    2
   113   141   140    1
   114   116   113    1
   115   157   156    1
   116   140   137    1
   117   151   149    1
   118   111   109    1
   119   125   124    1
   120   125   127    1
   121   124   121    1
   122   113   112    1
   123   113   114    1
   124   156   153    1
   125   115   114    2
   126   112   106   am
   127   149   150    1
   128   149   148    1
   129   137   138    1
   130   137   136    1
   131   123   122    2
   132   122   121    1
   133   121   120    1
   134   109   108    1
   135   109   110    1
   136   108   105    1
   137   153   152    1
   138   153   154    1
   139   139   138    2
   140   106   107    2
   141   106   105    1
   142   136   130   am
   143   148   145    1
   144   152   146   am
   145   155   154    2
   146   105   104    1
   147   146   147    2
   148   146   145    1
   149   130   131    2
   150   130   129    1
   151   145   144    1
   152   132   129    1
   153   132   133    1
   154   129   128    1
   155   135   133   ar
   156   133   134   ar
