@<TRIPOS>MOLECULE
tmp/2npnA00.pdb
 167 161 0 0 0
SMALL
GASTEIGER

@<TRIPOS>ATOM
      1  N         54.3370   31.9330   36.5940 N.3    11  THR11      -0.1203
      2  CA        55.0790   30.7420   36.8590 C.3    11  THR11       0.1994
      3  C         54.2200   29.8530   37.7420 C.2    11  THR11       0.2618
      4  O         53.9380   30.2180   38.8650 O.2    11  THR11      -0.2717
      5  CB        56.3820   31.1280   37.6900 C.3    11  THR11       0.1784
      6  OG1       57.1290   32.1580   37.0080 O.3    11  THR11      -0.2211
      7  CG2       57.2470   29.9670   37.9200 C.3    11  THR11       0.0376
      8  N         53.7950   28.7040   37.2290 N.am   12  GLY12      -0.1956
      9  CA        53.1840   27.6900   38.0940 C.3    12  GLY12       0.1869
     10  C         51.7040   27.7970   38.4990 C.2    12  GLY12       0.2309
     11  O         51.0860   26.7290   38.7160 O.2    12  GLY12      -0.2863
     12  N         52.8540   21.6300   31.7180 N.3    40  LEU40      -0.1245
     13  CA        52.8920   23.0420   31.3410 C.3    40  LEU40       0.1561
     14  C         51.8250   23.3970   30.3180 C.2    40  LEU40       0.2260
     15  O         51.1580   24.4270   30.4430 O.2    40  LEU40      -0.2867
     16  CB        54.2670   23.4520   30.7900 C.3    40  LEU40       0.0270
     17  CG        55.4020   23.5960   31.7980 C.3    40  LEU40       0.0019
     18  CD1       56.5570   24.2950   31.0930 C.3    40  LEU40       0.0001
     19  CD2       54.9720   24.3680   33.0210 C.3    40  LEU40       0.0001
     20  N         55.9830   32.2270   29.4620 N.3    96  TRP96      -0.1227
     21  CA        56.0760   31.9030   30.8700 C.3    96  TRP96       0.1737
     22  C         56.9160   32.9540   31.6240 C.2    96  TRP96       0.2596
     23  O         57.9270   33.4480   31.1010 O.2    96  TRP96      -0.2718
     24  CB        56.7160   30.5300   31.0350 C.3    96  TRP96       0.0564
     25  CG        55.8930   29.4100   30.5720 C.ar   96  TRP96       0.0003
     26  CD1       56.1510   28.5920   29.5110 C.ar   96  TRP96       0.0946
     27  CD2       54.6590   28.9640   31.1320 C.ar   96  TRP96       0.0152
     28  NE1       55.1500   27.6710   29.3740 N.ar   96  TRP96      -0.2442
     29  CE2       54.2130   27.8870   30.3490 C.ar   96  TRP96       0.0810
     30  CE3       53.8490   29.4230   32.1810 C.ar   96  TRP96       0.0012
     31  CZ2       53.0430   27.2190   30.6260 C.ar   96  TRP96       0.0191
     32  CZ3       52.6680   28.7750   32.4420 C.ar   96  TRP96       0.0001
     33  CH2       52.2810   27.6770   31.6790 C.ar   96  TRP96       0.0015
     34  N         56.4470   33.3220   32.8100 N.am   97  GLY97      -0.1942
     35  CA        57.1420   34.2540   33.6920 C.3    97  GLY97       0.2014
     36  C         56.9990   35.6700   33.1770 C.2    97  GLY97       0.2638
     37  O         55.8600   36.1320   32.9590 O.2    97  GLY97      -0.2714
     38  N         58.1300   36.3350   32.9660 N.am   98  ASP98      -0.1971
     39  CA        58.1790   37.6730   32.3490 C.3    98  ASP98       0.1709
     40  C         58.8160   37.5490   30.9560 C.2    98  ASP98       0.2293
     41  O         59.7920   36.8030   30.7880 O.2    98  ASP98      -0.2864
     42  CB        59.0050   38.6280   33.2090 C.3    98  ASP98       0.1436
     43  CG        58.8940   40.0810   32.7300 C.2    98  ASP98       0.3671
     44  OD1       58.0080   40.8180   33.2300 O.co2  98  ASP98      -0.2456
     45  OD2       59.7380   40.4550   31.8760 O.co2  98  ASP98      -0.2456
     46  N         62.9280   37.9190   30.3560 N.3   101  LEU101     -0.1231
     47  CA        63.9500   37.1670   31.0950 C.3   101  LEU101      0.1693
     48  C         64.2130   35.7700   30.4810 C.2   101  LEU101      0.2592
     49  O         63.3840   34.8750   30.5520 O.2   101  LEU101     -0.2718
     50  CB        63.5480   37.0580   32.5670 C.3   101  LEU101      0.0284
     51  CG        64.5150   36.2830   33.4580 C.3   101  LEU101      0.0019
     52  CD1       65.8830   36.9460   33.5220 C.3   101  LEU101      0.0001
     53  CD2       63.8830   36.1590   34.8460 C.3   101  LEU101      0.0001
     54  N         65.4080   35.5930   29.9420 N.am  102  TYR102     -0.1962
     55  CA        65.8080   34.3070   29.3300 C.3   102  TYR102      0.1771
     56  C         64.6810   33.7020   28.4940 C.2   102  TYR102      0.2619
     57  O         64.3210   32.5180   28.6390 O.2   102  TYR102     -0.2715
     58  CB        66.3460   33.3010   30.3610 C.3   102  TYR102      0.0574
     59  CG        67.6240   33.7490   31.0340 C.ar  102  TYR102     -0.0198
     60  CD1       68.7580   34.0750   30.2860 C.ar  102  TYR102     -0.0009
     61  CD2       67.7040   33.8910   32.3950 C.ar  102  TYR102     -0.0009
     62  CE1       69.9510   34.5060   30.8700 C.ar  102  TYR102      0.0417
     63  CE2       68.8810   34.3210   32.9940 C.ar  102  TYR102      0.0417
     64  CZ        70.0110   34.6390   32.2330 C.ar  102  TYR102      0.1957
     65  OH        71.1560   35.1180   32.8330 O.3   102  TYR102     -0.2866
     66  N         64.1780   34.4980   27.5740 N.am  103  ASP103     -0.1971
     67  CA        63.1210   34.0620   26.6530 C.3   103  ASP103      0.1709
     68  C         63.3350   34.6940   25.2980 C.2   103  ASP103      0.2293
     69  O         63.6920   35.8780   25.2220 O.2   103  ASP103     -0.2864
     70  CB        61.7370   34.4420   27.2100 C.3   103  ASP103      0.1436
     71  CG        60.6260   33.8370   26.4120 C.2   103  ASP103      0.3671
     72  OD1       60.2440   32.6920   26.7050 O.co2 103  ASP103     -0.2456
     73  OD2       60.1750   34.4870   25.4360 O.co2 103  ASP103     -0.2456
     74  N         58.1680   36.3900   37.5440 N.3   128  THR128     -0.1203
     75  CA        59.2590   35.5070   37.1650 C.3   128  THR128      0.1994
     76  C         59.4660   34.3550   38.1790 C.2   128  THR128      0.2617
     77  O         59.0430   34.4290   39.3290 O.2   128  THR128     -0.2717
     78  CB        60.6070   36.2950   37.0930 C.3   128  THR128      0.1784
     79  OG1       61.0030   36.6850   38.4180 O.3   128  THR128     -0.2211
     80  CG2       60.5590   37.5230   36.1480 C.3   128  THR128      0.0376
     81  N         60.1390   33.2960   37.7410 N.am  129  ALA129     -0.1979
     82  CA        60.4750   32.1870   38.6270 C.3   129  ALA129      0.1597
     83  C         61.3180   32.6750   39.8270 C.2   129  ALA129      0.2287
     84  O         61.2080   32.1810   40.9490 O.2   129  ALA129     -0.2864
     85  CB        61.2170   31.0970   37.8330 C.3   129  ALA129      0.0319
     86  N         70.6280   31.5340   40.0560 N.3   169  VAL169     -0.1245
     87  CA        71.0200   30.6490   38.9790 C.3   169  VAL169      0.1561
     88  C         69.7730   30.0140   38.3270 C.2   169  VAL169      0.2260
     89  O         68.9200   29.4510   39.0180 O.2   169  VAL169     -0.2867
     90  CB        71.9640   29.5630   39.4240 C.3   169  VAL169      0.0252
     91  CG1       72.4410   28.7210   38.2610 C.3   169  VAL169      0.0019
     92  CG2       73.1410   30.1380   40.2280 C.3   169  VAL169      0.0019
     93  N         68.3970   28.0050   34.4310 N.3   170  LEU170     -0.1231
     94  CA        68.8490   27.2230   33.2850 C.3   170  LEU170      0.1693
     95  C         69.9930   26.2320   33.6710 C.2   170  LEU170      0.2592
     96  O         70.8080   25.8790   32.8260 O.2   170  LEU170     -0.2718
     97  CB        69.2770   28.1220   32.1410 C.3   170  LEU170      0.0284
     98  CG        68.1480   28.9340   31.5260 C.3   170  LEU170      0.0019
     99  CD1       68.7070   29.9660   30.5550 C.3   170  LEU170      0.0001
    100  CD2       67.1990   27.9990   30.7550 C.3   170  LEU170      0.0001
    101  N         69.9970   25.7210   34.8910 N.am  171  ASP171     -0.1974
    102  CA        71.0380   24.7610   35.2920 C.3   171  ASP171      0.1709
    103  C         70.5100   23.3570   35.0680 C.2   171  ASP171      0.2293
    104  O         69.6210   22.9170   35.7860 O.2   171  ASP171     -0.2864
    105  CB        71.4250   24.8960   36.7880 C.3   171  ASP171      0.1436
    106  CG        72.6050   24.0080   37.1900 C.2   171  ASP171      0.3671
    107  OD1       73.2090   23.3130   36.3250 O.co2 171  ASP171     -0.2456
    108  OD2       72.9400   24.0430   38.3880 O.co2 171  ASP171     -0.2456
    109  N         64.3940   25.7940   44.5620 N.3   188  GLY188     -0.1225
    110  CA        63.0590   25.3550   44.3110 C.3   188  GLY188      0.1811
    111  C         62.8660   24.8220   42.9170 C.2   188  GLY188      0.2280
    112  O         63.4620   25.3190   41.9640 O.2   188  GLY188     -0.2866
    113  N         59.6280   23.3850   40.1690 N.3   190  PHE190     -0.1227
    114  CA        58.1990   23.3950   39.8660 C.3   190  PHE190      0.1736
    115  C         57.5040   24.4700   40.7070 C.2   190  PHE190      0.2595
    116  O         56.3790   24.2770   41.1880 O.2   190  PHE190     -0.2718
    117  CB        57.5930   22.0030   40.1290 C.3   190  PHE190      0.0547
    118  CG        58.3510   20.8640   39.4710 C.ar  190  PHE190     -0.0202
    119  CD1       58.3980   20.7620   38.0760 C.ar  190  PHE190     -0.0042
    120  CD2       58.9660   19.9040   40.2240 C.ar  190  PHE190     -0.0042
    121  CE1       59.0570   19.7170   37.4420 C.ar  190  PHE190     -0.0003
    122  CE2       59.6520   18.8230   39.5980 C.ar  190  PHE190     -0.0003
    123  CZ        59.6940   18.7570   38.2160 C.ar  190  PHE190     -0.0000
    124  N         58.1750   25.6080   40.8470 N.am  191  LEU191     -0.1980
    125  CA        57.6810   26.6990   41.6630 C.3   191  LEU191      0.1596
    126  C         56.3240   27.1880   41.1960 C.2   191  LEU191      0.2287
    127  O         56.0910   27.2890   39.9840 O.2   191  LEU191     -0.2864
    128  CB        58.6430   27.8900   41.6110 C.3   191  LEU191      0.0297
    129  CG        59.9600   27.6630   42.3010 C.3   191  LEU191      0.0022
    130  CD1       60.9710   28.6770   41.8170 C.3   191  LEU191      0.0001
    131  CD2       59.8230   27.7300   43.8190 C.3   191  LEU191      0.0001
    132  N         53.4870   25.6930   41.3900 N.3   193  THR193     -0.1218
    133  CA        52.6260   24.5650   41.0260 C.3   193  THR193      0.1862
    134  C         52.3240   23.7170   42.2480 C.2   193  THR193      0.2287
    135  O         52.9410   23.8420   43.3040 O.2   193  THR193     -0.2866
    136  CB        53.2740   23.6280   39.9550 C.3   193  THR193      0.1770
    137  OG1       54.2290   22.7940   40.5910 O.3   193  THR193     -0.2211
    138  CG2       53.9020   24.3920   38.7710 C.3   193  THR193      0.0375
    139  N         61.2950   15.6140   33.3230 N.3   223  TRP223     -0.1241
    140  CA        61.9760   16.8990   33.1960 C.3   223  TRP223      0.1605
    141  C         61.9460   17.5820   34.5510 C.2   223  TRP223      0.2264
    142  O         61.2190   17.1860   35.4610 O.2   223  TRP223     -0.2867
    143  CB        61.2830   17.7990   32.1740 C.3   223  TRP223      0.0550
    144  CG        59.8500   18.1190   32.5370 C.ar  223  TRP223      0.0003
    145  CD1       58.7550   17.3230   32.3020 C.ar  223  TRP223      0.0946
    146  CD2       59.3430   19.3000   33.1850 C.ar  223  TRP223      0.0152
    147  NE1       57.6160   17.9240   32.7720 N.ar  223  TRP223     -0.2442
    148  CE2       57.9360   19.1430   33.3000 C.ar  223  TRP223      0.0810
    149  CE3       59.9260   20.4720   33.6660 C.ar  223  TRP223      0.0012
    150  CZ2       57.1270   20.0980   33.9020 C.ar  223  TRP223      0.0191
    151  CZ3       59.1060   21.4360   34.2410 C.ar  223  TRP223      0.0001
    152  CH2       57.7250   21.2360   34.3550 C.ar  223  TRP223      0.0015
    153  N         64.4190   24.1100   37.8420 N.3   225  ASP225     -0.1225
    154  CA        64.7570   24.6250   39.1550 C.3   225  ASP225      0.1805
    155  C         65.3530   26.0260   39.0360 C.2   225  ASP225      0.2598
    156  O         65.9400   26.3940   37.9920 O.2   225  ASP225     -0.2718
    157  CB        65.6840   23.7030   39.9820 C.3   225  ASP225      0.1424
    158  CG        67.1050   23.4700   39.3440 C.2   225  ASP225      0.3668
    159  OD1       67.2790   23.6950   38.1230 O.co2 225  ASP225     -0.2456
    160  OD2       68.0490   22.9920   40.0510 O.co2 225  ASP225     -0.2456
    161  N         65.2690   26.7670   40.1420 N.am  226  THR226     -0.1953
    162  CA        65.9280   28.0750   40.2500 C.3   226  THR226      0.1897
    163  C         66.4670   28.0980   41.6750 C.2   226  THR226      0.2313
    164  O         65.8460   27.5400   42.5990 O.2   226  THR226     -0.2863
    165  CB        64.9040   29.2450   40.0290 C.3   226  THR226      0.1794
    166  OG1       64.2960   29.1650   38.7260 O.3   226  THR226     -0.2208
    167  CG2       65.5640   30.6470   40.1170 C.3   226  THR226      0.0378
@<TRIPOS>BOND
     1    69    68    2
     2    68    67    1
     3    73    71   ar
     4    71    72   ar
     5    71    70    1
     6    67    70    1
     7    67    66    1
     8    66    56   am
     9    56    57    2
    10    56    55    1
    11    55    54    1
    12    55    58    1
    13    28    26   ar
    14    28    29   ar
    15    20    21    1
    16    26    25   ar
    17    54    48   am
    18    60    62   ar
    19    60    59   ar
    20    14    15    2
    21    14    13    1
    22    29    31   ar
    23    29    27   ar
    24    46    47    1
    25    58    59    1
    26    48    49    2
    27    48    47    1
    28    99    98    1
    29    25    24    1
    30    25    27   ar
    31    31    33   ar
    32   100    98    1
    33    41    40    2
    34    16    13    1
    35    16    17    1
    36    62    64   ar
    37    21    24    1
    38    21    22    1
    39    40    39    1
    40    59    61   ar
    41    18    17    1
    42    47    50    1
    43    23    22    2
    44    27    30   ar
    45    13    12    1
    46    98    97    1
    47    22    34   am
    48    33    32   ar
    49    17    19    1
    50    45    43   ar
    51    97    94    1
    52   143   144    1
    53   143   140    1
    54    30    32   ar
    55    64    65    1
    56    64    63   ar
    57   145   144   ar
    58   145   147   ar
    59    39    38    1
    60    39    42    1
    61    61    63   ar
    62   144   146   ar
    63    50    51    1
    64    43    42    1
    65    43    44   ar
    66   147   148   ar
    67    34    35    1
    68    96    95    2
    69    37    36    2
    70    38    36   am
    71    36    35    1
    72   146   148   ar
    73   146   149   ar
    74   140   139    1
    75   140   141    1
    76    94    95    1
    77    94    93    1
    78   148   150   ar
    79    51    52    1
    80    51    53    1
    81   149   151   ar
    82    95   101   am
    83   150   152   ar
    84   151   152   ar
    85   141   142    2
    86   101   102    1
    87   103   102    1
    88   103   104    2
    89   102   105    1
    90    80    78    1
    91   107   106   ar
    92     1     2    1
    93   105   106    1
    94     2     5    1
    95     2     3    1
    96     6     5    1
    97    78    75    1
    98    78    79    1
    99    75    74    1
   100    75    76    1
   101   106   108   ar
   102     8     3   am
   103     8     9    1
   104   121   119   ar
   105   121   123   ar
   106     5     7    1
   107    81    76   am
   108    81    82    1
   109     3     4    2
   110    85    82    1
   111   153   154    1
   112   156   155    2
   113   119   118   ar
   114     9    10    1
   115   159   158   ar
   116    76    77    2
   117   123   122   ar
   118    91    90    1
   119    88    87    1
   120    88    89    2
   121    10    11    2
   122    82    83    1
   123   166   165    1
   124   138   136    1
   125    87    90    1
   126    87    86    1
   127   155   154    1
   128   155   161   am
   129   154   157    1
   130   158   157    1
   131   158   160   ar
   132    90    92    1
   133   118   117    1
   134   118   120   ar
   135   122   120   ar
   136    83    84    2
   137   114   117    1
   138   114   113    1
   139   114   115    1
   140   136   137    1
   141   136   133    1
   142   127   126    2
   143   165   167    1
   144   165   162    1
   145   161   162    1
   146   162   163    1
   147   115   124   am
   148   115   116    2
   149   124   125    1
   150   133   132    1
   151   133   134    1
   152   126   125    1
   153   128   125    1
   154   128   129    1
   155   163   164    2
   156   130   129    1
   157   112   111    2
   158   134   135    2
   159   129   131    1
   160   111   110    1
   161   110   109    1
