@<TRIPOS>MOLECULE
tmp/2nppC00.pdb
 225 221 0 0 0
SMALL
GASTEIGER

@<TRIPOS>ATOM
      1  N         -3.4340  106.1700  -39.3230 N.3    58  HIS58      -0.1241
      2  CA        -4.5160  106.9400  -39.9240 C.3    58  HIS58       0.1621
      3  C         -5.2050  107.9960  -39.0720 C.2    58  HIS58       0.2264
      4  O         -6.4320  107.9940  -38.9270 O.2    58  HIS58      -0.2867
      5  CB        -5.5620  105.9810  -40.4920 C.3    58  HIS58       0.0745
      6  CG        -5.1290  105.3060  -41.7550 C.ar   58  HIS58       0.0817
      7  ND1       -4.9690  105.9870  -42.9400 N.ar   58  HIS58      -0.2268
      8  CD2       -4.7750  104.0220  -42.0090 C.ar   58  HIS58       0.1154
      9  CE1       -4.5320  105.1550  -43.8690 C.ar   58  HIS58       0.1986
     10  NE2       -4.4050  103.9550  -43.3310 N.ar   58  HIS58      -0.2212
     11  N         -8.8970  109.3270  -42.6250 N.3    88  ARG88      -0.1245
     12  CA        -9.8310  108.5130  -41.8310 C.3    88  ARG88       0.1563
     13  C        -10.0640  108.9780  -40.4100 C.2    88  ARG88       0.2260
     14  O        -11.2000  109.2640  -40.0280 O.2    88  ARG88      -0.2867
     15  CB        -9.3820  107.0630  -41.7640 C.3    88  ARG88       0.0307
     16  CG        -9.2060  106.3850  -43.0960 C.3    88  ARG88       0.0489
     17  CD       -10.5040  106.1650  -43.8270 C.3    88  ARG88       0.2205
     18  NE       -10.2440  105.3220  -44.9830 N.pl3  88  ARG88      -0.0865
     19  CZ       -11.1230  105.0700  -45.9380 C.cat  88  ARG88       0.5346
     20  NH1      -12.3480  105.5990  -45.8880 N.pl3  88  ARG88       0.1354
     21  NH2      -10.7620  104.2930  -46.9500 N.pl3  88  ARG88       0.1354
     22  N          0.8460  105.0290  -48.6280 N.3   116  ASN116     -0.1225
     23  CA         0.0730  105.2720  -49.8400 C.3   116  ASN116      0.1785
     24  C         -0.7800  106.5180  -49.6510 C.2   116  ASN116      0.2597
     25  O         -1.1780  107.1510  -50.6220 O.2   116  ASN116     -0.2718
     26  CB        -0.7950  104.0400  -50.2370 C.3   116  ASN116      0.1169
     27  CG        -1.7380  103.5560  -49.1200 C.2   116  ASN116      0.2627
     28  OD1       -1.2760  103.2290  -48.0030 O.2   116  ASN116     -0.2716
     29  ND2       -3.0380  103.4710  -49.4150 N.am  116  ASN116     -0.0877
     30  N         -1.0230  106.8870  -48.3960 N.am  117  HIS117     -0.1975
     31  CA        -1.8240  108.0620  -48.0840 C.3   117  HIS117      0.1656
     32  C         -1.0340  109.3760  -47.9620 C.2   117  HIS117      0.2291
     33  O         -1.6170  110.4510  -47.8320 O.2   117  HIS117     -0.2864
     34  CB        -2.6170  107.8020  -46.8180 C.3   117  HIS117      0.0771
     35  CG        -3.8170  106.9360  -47.0310 C.ar  117  HIS117      0.0820
     36  ND1       -5.0710  107.4520  -47.2780 N.ar  117  HIS117     -0.2267
     37  CD2       -3.9580  105.5900  -47.0180 C.ar  117  HIS117      0.1154
     38  CE1       -5.9350  106.4610  -47.4020 C.ar  117  HIS117      0.1986
     39  NE2       -5.2850  105.3200  -47.2470 N.ar  117  HIS117     -0.2212
     40  N          0.0350  111.2530  -49.9560 N.3   119  SER119     -0.1217
     41  CA        -0.0400  111.6950  -51.3350 C.3   119  SER119      0.1889
     42  C         -1.1600  112.6920  -51.4540 C.2   119  SER119      0.2288
     43  O         -2.2140  112.5220  -50.8460 O.2   119  SER119     -0.2866
     44  CB        -0.3640  110.5240  -52.2470 C.3   119  SER119      0.2089
     45  OG        -1.7460  110.2020  -52.1380 O.3   119  SER119     -0.2183
     46  N         -3.3880  113.4190  -53.9360 N.3   121  GLN121     -0.1231
     47  CA        -4.6750  112.8970  -54.3800 C.3   121  GLN121      0.1698
     48  C         -5.4370  112.0980  -53.3270 C.2   121  GLN121      0.2592
     49  O         -6.6270  112.3230  -53.1070 O.2   121  GLN121     -0.2718
     50  CB        -4.4970  112.0330  -55.6280 C.3   121  GLN121      0.0381
     51  CG        -5.8130  111.6020  -56.2480 C.3   121  GLN121      0.0905
     52  CD        -5.6260  110.7870  -57.5050 C.2   121  GLN121      0.2608
     53  OE1       -4.8210  111.1420  -58.3730 O.2   121  GLN121     -0.2717
     54  NE2       -6.3800  109.6930  -57.6220 N.am  121  GLN121     -0.0878
     55  N         -4.7700  111.1540  -52.6790 N.am  122  ILE122     -0.1980
     56  CA        -5.4760  110.3700  -51.6900 C.3   122  ILE122      0.1595
     57  C         -5.9700  111.2530  -50.5590 C.2   122  ILE122      0.2287
     58  O         -7.1430  111.1780  -50.1970 O.2   122  ILE122     -0.2864
     59  CB        -4.6040  109.2020  -51.1330 C.3   122  ILE122      0.0276
     60  CG1       -4.9350  107.9130  -51.8800 C.3   122  ILE122      0.0022
     61  CG2       -4.8970  108.9530  -49.6590 C.3   122  ILE122      0.0022
     62  CD1       -4.6570  107.9780  -53.3370 C.3   122  ILE122      0.0001
     63  N         -8.9780  112.9110  -51.1840 N.3   125  VAL125     -0.1231
     64  CA       -10.1340  112.0280  -51.3160 C.3   125  VAL125      0.1692
     65  C        -10.5330  111.3870  -50.0030 C.2   125  VAL125      0.2592
     66  O        -11.6930  111.0540  -49.7890 O.2   125  VAL125     -0.2718
     67  CB        -9.8580  110.9070  -52.3140 C.3   125  VAL125      0.0266
     68  CG1      -11.0250  109.9270  -52.3390 C.3   125  VAL125      0.0020
     69  CG2       -9.6210  111.5100  -53.6880 C.3   125  VAL125      0.0020
     70  N         -9.5690  111.2270  -49.1130 N.am  126  TYR126     -0.1976
     71  CA        -9.8520  110.5890  -47.8510 C.3   126  TYR126      0.1639
     72  C         -9.7420  111.4440  -46.5990 C.2   126  TYR126      0.2290
     73  O         -9.3570  110.9490  -45.5390 O.2   126  TYR126     -0.2864
     74  CB        -8.9890  109.3390  -47.7370 C.3   126  TYR126      0.0560
     75  CG        -9.3910  108.2910  -48.7480 C.ar  126  TYR126     -0.0198
     76  CD1      -10.4810  107.4510  -48.5150 C.ar  126  TYR126     -0.0009
     77  CD2       -8.7200  108.1770  -49.9620 C.ar  126  TYR126     -0.0009
     78  CE1      -10.8930  106.5250  -49.4620 C.ar  126  TYR126      0.0417
     79  CE2       -9.1250  107.2540  -50.9200 C.ar  126  TYR126      0.0417
     80  CZ       -10.2120  106.4290  -50.6660 C.ar  126  TYR126      0.1957
     81  OH       -10.6120  105.5150  -51.6210 O.3   126  TYR126     -0.2866
     82  N          5.4730  113.1810  -56.1560 N.3   187  GLU187     -0.1231
     83  CA         4.1970  112.5750  -55.8060 C.3   187  GLU187      0.1699
     84  C          4.1120  111.1560  -56.3350 C.2   187  GLU187      0.2592
     85  O          4.5990  110.8470  -57.4240 O.2   187  GLU187     -0.2718
     86  CB         3.0330  113.3970  -56.3710 C.3   187  GLU187      0.0402
     87  CG         1.6740  112.6950  -56.3060 C.3   187  GLU187      0.1161
     88  CD         0.9900  112.7930  -54.9490 C.2   187  GLU187      0.3649
     89  OE1        1.6840  112.9450  -53.9240 O.co2 187  GLU187     -0.2457
     90  OE2       -0.2550  112.7010  -54.9140 O.co2 187  GLU187     -0.2457
     91  N          3.4800  110.3030  -55.5410 N.am  188  VAL188     -0.1966
     92  CA         3.2750  108.9040  -55.8750 C.3   188  VAL188      0.1712
     93  C          2.5740  108.7260  -57.2260 C.2   188  VAL188      0.2458
     94  O          1.4230  109.1260  -57.3930 O.2   188  VAL188     -0.2730
     95  CB         2.4290  108.2540  -54.7840 C.3   188  VAL188      0.0289
     96  CG1        2.1740  106.7980  -55.1060 C.3   188  VAL188      0.0023
     97  CG2        3.1360  108.4090  -53.4500 C.3   188  VAL188      0.0023
     98  N          3.2610  108.1230  -58.2100 N.am  189  PRO189     -0.2716
     99  CA         2.6650  107.9090  -59.5370 C.3   189  PRO189      0.1536
    100  C          1.6040  106.8160  -59.4640 C.2   189  PRO189      0.2598
    101  O          1.5970  106.0240  -58.5260 O.2   189  PRO189     -0.2715
    102  CB         3.8570  107.4740  -60.3890 C.3   189  PRO189      0.0310
    103  CG         5.0550  107.9960  -59.6350 C.3   189  PRO189      0.0237
    104  CD         4.6790  107.7380  -58.2110 C.3   189  PRO189      0.0939
    105  N          0.7140  106.7620  -60.4480 N.am  190  HIS190     -0.1974
    106  CA        -0.3280  105.7330  -60.4470 C.3   190  HIS190      0.1656
    107  C          0.2490  104.3900  -60.8820 C.2   190  HIS190      0.2291
    108  O         -0.3450  103.3310  -60.6480 O.2   190  HIS190     -0.2864
    109  CB        -1.4410  106.1050  -61.4190 C.3   190  HIS190      0.0771
    110  CG        -2.0660  107.4280  -61.1410 C.ar  190  HIS190      0.0820
    111  ND1       -1.3270  108.5780  -60.9840 N.ar  190  HIS190     -0.2267
    112  CD2       -3.3620  107.7890  -61.0090 C.ar  190  HIS190      0.1154
    113  CE1       -2.1410  109.5930  -60.7650 C.ar  190  HIS190      0.1986
    114  NE2       -3.3820  109.1400  -60.7760 N.ar  190  HIS190     -0.2212
    115  N          5.3640  103.3940  -56.7230 N.3   195  CYS195     -0.1235
    116  CA         3.9570  103.1650  -56.4570 C.3   195  CYS195      0.1677
    117  C          3.7240  101.7650  -55.9180 C.2   195  CYS195      0.2270
    118  O          2.9400  101.5750  -54.9890 O.2   195  CYS195     -0.2867
    119  CB         3.1420  103.3550  -57.7250 C.3   195  CYS195      0.0956
    120  SG         1.4480  102.7680  -57.5530 S.3   195  CYS195     -0.0801
    121  N          1.7530  100.2400  -52.6120 N.3   199  TRP199     -0.1241
    122  CA         0.3840   99.7400  -52.7500 C.3   199  TRP199      0.1605
    123  C          0.2380   98.2230  -52.8920 C.2   199  TRP199      0.2264
    124  O         -0.8730   97.6850  -52.8230 O.2   199  TRP199     -0.2867
    125  CB        -0.3070  100.3920  -53.9390 C.3   199  TRP199      0.0550
    126  CG        -0.7340  101.7940  -53.7420 C.ar  199  TRP199      0.0003
    127  CD1        0.0550  102.9020  -53.7560 C.ar  199  TRP199      0.0946
    128  CD2       -2.0720  102.2560  -53.5540 C.ar  199  TRP199      0.0152
    129  NE1       -0.7110  104.0370  -53.5940 N.ar  199  TRP199     -0.2442
    130  CE2       -2.0220  103.6650  -53.4660 C.ar  199  TRP199      0.0810
    131  CE3       -3.3120  101.6170  -53.4550 C.ar  199  TRP199      0.0012
    132  CZ2       -3.1670  104.4480  -53.2800 C.ar  199  TRP199      0.0191
    133  CZ3       -4.4580  102.4000  -53.2720 C.ar  199  TRP199      0.0001
    134  CH2       -4.3740  103.7990  -53.1870 C.ar  199  TRP199      0.0015
    135  N         -6.6860   94.2650  -56.5890 N.3   212  PRO212     -0.2102
    136  CA        -8.0940   94.6460  -56.6980 C.3   212  PRO212      0.1504
    137  C         -8.2780   96.0880  -56.2570 C.2   212  PRO212      0.2576
    138  O         -9.3700   96.6540  -56.3770 O.2   212  PRO212     -0.2718
    139  CB        -8.7880   93.6580  -55.7690 C.3   212  PRO212      0.0282
    140  CG        -7.7740   93.5040  -54.6700 C.3   212  PRO212      0.0208
    141  CD        -6.4580   93.3930  -55.4250 C.3   212  PRO212      0.0893
    142  N         -7.2010   96.6730  -55.7380 N.am  213  ARG213     -0.1966
    143  CA        -7.2370   98.0480  -55.2760 C.3   213  ARG213      0.1729
    144  C         -7.3640   98.9600  -56.4820 C.2   213  ARG213      0.2617
    145  O         -8.4160   99.5620  -56.7260 O.2   213  ARG213     -0.2715
    146  CB        -5.9610   98.3920  -54.5150 C.3   213  ARG213      0.0348
    147  CG        -5.8680   97.8470  -53.0910 C.3   213  ARG213      0.0492
    148  CD        -4.7090   98.5480  -52.3650 C.3   213  ARG213      0.2205
    149  NE        -4.3080   97.9490  -51.0890 N.pl3 213  ARG213     -0.0865
    150  CZ        -5.1050   97.8000  -50.0390 C.cat 213  ARG213      0.5346
    151  NH1       -6.3720   98.2020  -50.1040 N.pl3 213  ARG213      0.1354
    152  NH2       -4.6240   97.2700  -48.9200 N.pl3 213  ARG213      0.1354
    153  N         -6.2740   99.0500  -57.2350 N.am  214  GLY214     -0.1940
    154  CA        -6.2500   99.8790  -58.4210 C.3   214  GLY214      0.2014
    155  C         -4.8130  100.1770  -58.7620 C.2   214  GLY214      0.2638
    156  O         -4.5020  100.5470  -59.8860 O.2   214  GLY214     -0.2714
    157  N         -3.9310  100.0130  -57.7870 N.am  215  ALA215     -0.1977
    158  CA        -2.5180  100.2710  -58.0020 C.3   215  ALA215      0.1597
    159  C         -1.7080   99.1680  -57.3540 C.2   215  ALA215      0.2287
    160  O         -2.2140   98.4600  -56.4850 O.2   215  ALA215     -0.2864
    161  CB        -2.1450  101.5970  -57.4080 C.3   215  ALA215      0.0319
    162  N         -0.3960   97.5250  -44.4330 N.3   240  HIS240     -0.1241
    163  CA        -1.0840   98.3430  -45.4070 C.3   240  HIS240      0.1621
    164  C         -2.5260   97.8960  -45.5300 C.2   240  HIS240      0.2264
    165  O         -3.3420   98.5370  -46.1990 O.2   240  HIS240     -0.2867
    166  CB        -0.3560   98.2210  -46.7450 C.3   240  HIS240      0.0745
    167  CG        -1.0180   98.9480  -47.8720 C.ar  240  HIS240      0.0817
    168  ND1       -1.2210  100.3120  -47.8680 N.ar  240  HIS240     -0.2268
    169  CD2       -1.5050   98.4950  -49.0520 C.ar  240  HIS240      0.1154
    170  CE1       -1.8030  100.6640  -49.0010 C.ar  240  HIS240      0.1986
    171  NE2       -1.9850   99.5810  -49.7360 N.ar  240  HIS240     -0.2212
    172  N         -5.8930   96.2220  -43.2350 N.3   242  LEU242     -0.1245
    173  CA        -6.5030   95.8650  -41.9760 C.3   242  LEU242      0.1561
    174  C         -6.3660   94.3750  -41.7360 C.2   242  LEU242      0.2260
    175  O         -6.7390   93.5680  -42.5870 O.2   242  LEU242     -0.2867
    176  CB        -7.9810   96.2340  -42.0000 C.3   242  LEU242      0.0270
    177  CG        -8.7140   96.0140  -40.6850 C.3   242  LEU242      0.0019
    178  CD1       -8.3160   97.1100  -39.7330 C.3   242  LEU242      0.0001
    179  CD2      -10.2070   96.0370  -40.8950 C.3   242  LEU242      0.0001
    180  N         -0.9050   96.1640  -38.5810 N.3   259  PHE259     -0.1241
    181  CA        -1.7970   97.3280  -38.5450 C.3   259  PHE259      0.1605
    182  C         -1.8530   97.9490  -37.1390 C.2   259  PHE259      0.2264
    183  O         -2.0810   97.2560  -36.1430 O.2   259  PHE259     -0.2867
    184  CB        -3.1930   96.8870  -38.9770 C.3   259  PHE259      0.0534
    185  CG        -4.0320   97.9740  -39.5710 C.ar  259  PHE259     -0.0203
    186  CD1       -3.7140   98.5160  -40.8080 C.ar  259  PHE259     -0.0042
    187  CD2       -5.1900   98.4000  -38.9300 C.ar  259  PHE259     -0.0042
    188  CE1       -4.5470   99.4690  -41.4080 C.ar  259  PHE259     -0.0003
    189  CE2       -6.0260   99.3460  -39.5140 C.ar  259  PHE259     -0.0003
    190  CZ        -5.7070   99.8820  -40.7560 C.ar  259  PHE259     -0.0000
    191  N        -10.0880  100.6290  -36.6570 N.3   264  TYR264     -0.1227
    192  CA        -9.8870  101.4660  -37.8280 C.3   264  TYR264      0.1736
    193  C        -11.1320  102.2210  -38.2830 C.2   264  TYR264      0.2595
    194  O        -12.2180  101.6460  -38.3830 O.2   264  TYR264     -0.2718
    195  CB        -9.4080  100.5830  -38.9610 C.3   264  TYR264      0.0548
    196  CG        -8.9420  101.3340  -40.1480 C.ar  264  TYR264     -0.0200
    197  CD1       -9.0250  100.7720  -41.4040 C.ar  264  TYR264     -0.0009
    198  CD2       -8.3630  102.5840  -40.0220 C.ar  264  TYR264     -0.0009
    199  CE1       -8.5400  101.4280  -42.5190 C.ar  264  TYR264      0.0417
    200  CE2       -7.8690  103.2520  -41.1350 C.ar  264  TYR264      0.0417
    201  CZ        -7.9610  102.6600  -42.3810 C.ar  264  TYR264      0.1957
    202  OH        -7.4470  103.2680  -43.4920 O.3   264  TYR264     -0.2866
    203  N        -10.9710  103.5090  -38.5660 N.am  265  CYS265     -0.1970
    204  CA       -12.0870  104.3330  -39.0240 C.3   265  CYS265      0.1712
    205  C        -13.2370  104.3950  -38.0110 C.2   265  CYS265      0.2296
    206  O        -14.3120  104.9400  -38.3010 O.2   265  CYS265     -0.2864
    207  CB       -12.6000  103.7910  -40.3540 C.3   265  CYS265      0.0983
    208  SG       -11.2610  103.4220  -41.5080 S.3   265  CYS265     -0.0798
    209  N        -14.7990  101.9350  -37.0250 N.3   267  ARG267     -0.1231
    210  CA       -15.7870  100.9630  -37.4880 C.3   267  ARG267      0.1694
    211  C        -15.2430   99.5240  -37.5560 C.2   267  ARG267      0.2592
    212  O        -15.6910   98.6430  -36.8200 O.2   267  ARG267     -0.2718
    213  CB       -16.2970  101.3690  -38.8680 C.3   267  ARG267      0.0321
    214  CG       -16.7750  102.8050  -38.9820 C.3   267  ARG267      0.0489
    215  CD       -18.2330  102.9730  -38.5900 C.3   267  ARG267      0.2205
    216  NE       -18.7530  104.2650  -39.0460 N.pl3 267  ARG267     -0.0865
    217  CZ       -19.9920  104.7080  -38.8380 C.cat 267  ARG267      0.5346
    218  NH1      -20.8690  103.9670  -38.1740 N.pl3 267  ARG267      0.1354
    219  NH2      -20.3520  105.9020  -39.2900 N.pl3 267  ARG267      0.1354
    220  N        -14.2750   99.3010  -38.4400 N.am  268  CYS268     -0.1970
    221  CA       -13.6680   97.9840  -38.6500 C.3   268  CYS268      0.1712
    222  C        -13.6470   96.9740  -37.5030 C.2   268  CYS268      0.2296
    223  O        -13.8530   95.7810  -37.7410 O.2   268  CYS268     -0.2864
    224  CB       -12.2570   98.1570  -39.1980 C.3   268  CYS268      0.0983
    225  SG       -12.2870   98.8550  -40.8550 S.3   268  CYS268     -0.0798
@<TRIPOS>BOND
     1   109   110    1
     2   109   106    1
     3   110   112   ar
     4   110   111   ar
     5   112   114   ar
     6   111   113   ar
     7   107   108    2
     8   107   106    1
     9   114   113   ar
    10   105   106    1
    11   105   100   am
    12   102   103    1
    13   102    99    1
    14   156   155    2
    15   103   104    1
    16    99   100    1
    17    99    98    1
    18   100   101    2
    19   155   154    1
    20   155   157   am
    21   154   153    1
    22    53    52    2
    23   104    98    1
    24    98    93   am
    25   158   157    1
    26   158   161    1
    27   158   159    1
    28   119   120    1
    29   119   116    1
    30    54    52   am
    31    52    51    1
    32    85    84    2
    33    94    93    2
    34   159   160    2
    35   153   144   am
    36    93    92    1
    37   145   144    2
    38   115   116    1
    39   136   135    1
    40   136   137    1
    41   136   139    1
    42   135   141    1
    43   144   143    1
    44   116   117    1
    45   138   137    2
    46    86    87    1
    47    86    83    1
    48    84    83    1
    49    84    91   am
    50    87    88    1
    51   137   142   am
    52    51    50    1
    53    82    83    1
    54   117   118    2
    55    92    91    1
    56    92    95    1
    57   139   140    1
    58   142   143    1
    59    50    47    1
    60   141   140    1
    61   143   146    1
    62    96    95    1
    63    88    90   ar
    64    88    89   ar
    65    95    97    1
    66   146   147    1
    67    47    46    1
    68    47    48    1
    69   125   126    1
    70   125   122    1
    71   127   126   ar
    72   127   129   ar
    73   126   128   ar
    74    69    67    1
    75   129   130   ar
    76   128   130   ar
    77   128   131   ar
    78   130   132   ar
    79   131   133   ar
    80    62    60    1
    81    48    49    2
    82    48    55   am
    83   132   134   ar
    84   133   134   ar
    85   147   148    1
    86   123   124    2
    87   123   122    1
    88   122   121    1
    89    55    56    1
    90   148   149    1
    91    68    67    1
    92    67    64    1
    93    44    45    1
    94    44    41    1
    95    60    59    1
    96    56    59    1
    97    56    57    1
    98    81    80    1
    99    42    41    1
   100    42    43    2
   101    41    40    1
   102    64    63    1
   103    64    65    1
   104    59    61    1
   105   149   150    2
   106    79    80   ar
   107    79    77   ar
   108    80    78   ar
   109    25    24    2
   110    57    58    2
   111    26    23    1
   112    26    27    1
   113   151   150    1
   114   150   152    1
   115    65    66    2
   116    65    70   am
   117    77    75   ar
   118    23    24    1
   119    23    22    1
   120   171   169   ar
   121   171   170   ar
   122    24    30   am
   123    78    76   ar
   124    29    27   am
   125    27    28    2
   126    70    71    1
   127   169   167   ar
   128   170   168   ar
   129    75    76   ar
   130    75    74    1
   131    30    31    1
   132    31    32    1
   133    31    34    1
   134    32    33    2
   135   167   168   ar
   136   167   166    1
   137    71    74    1
   138    71    72    1
   139    38    36   ar
   140    38    39   ar
   141    36    35   ar
   142    39    37   ar
   143    35    37   ar
   144    35    34    1
   145    21    19    1
   146   166   163    1
   147    72    73    2
   148   165   164    2
   149    19    20    1
   150    19    18    2
   151   164   163    1
   152   163   162    1
   153    18    17    1
   154     9    10   ar
   155     9     7   ar
   156    17    16    1
   157   202   201    1
   158    10     8   ar
   159   172   173    1
   160    16    15    1
   161     7     6   ar
   162    11    12    1
   163   175   174    2
   164   199   201   ar
   165   199   197   ar
   166   201   200   ar
   167     8     6   ar
   168   176   173    1
   169   176   177    1
   170   173   174    1
   171    12    15    1
   172    12    13    1
   173     6     5    1
   174   208   207    1
   175   188   186   ar
   176   188   190   ar
   177   197   196   ar
   178   200   198   ar
   179   179   177    1
   180   225   224    1
   181   186   185   ar
   182   190   189   ar
   183   177   178    1
   184     5     2    1
   185    13    14    2
   186   207   204    1
   187   196   198   ar
   188   196   195    1
   189     2     1    1
   190     2     3    1
   191   185   184    1
   192   185   187   ar
   193   189   187   ar
   194   219   217    1
   195   224   221    1
   196     3     4    2
   197   216   217    2
   198   216   215    1
   199   204   203    1
   200   204   205    1
   201   214   213    1
   202   214   215    1
   203   184   181    1
   204   195   192    1
   205   213   210    1
   206   217   218    1
   207   221   220    1
   208   221   222    1
   209   180   181    1
   210   203   193   am
   211   181   182    1
   212   220   211   am
   213   194   193    2
   214   206   205    2
   215   193   192    1
   216   192   191    1
   217   223   222    2
   218   211   210    1
   219   211   212    2
   220   210   209    1
   221   182   183    2
