@<TRIPOS>MOLECULE
tmp/2nq6A00.pdb
 155 153 0 0 0
SMALL
GASTEIGER

@<TRIPOS>ATOM
      1  N         52.6680   19.5010   48.4310 N.3    39  GLU39      -0.1245
      2  CA        51.3460   20.0830   48.2190 C.3    39  GLU39       0.1567
      3  C         50.3400   19.5830   49.2630 C.2    39  GLU39       0.2260
      4  O         49.6030   20.3680   49.8680 O.2    39  GLU39      -0.2867
      5  CB        50.8510   19.7180   46.8220 C.3    39  GLU39       0.0388
      6  CG        50.5410   20.8980   45.9520 C.3    39  GLU39       0.1160
      7  CD        50.1990   20.4830   44.5350 C.2    39  GLU39       0.3649
      8  OE1       49.3700   19.5710   44.3680 O.co2  39  GLU39      -0.2457
      9  OE2       50.7640   21.0800   43.6000 O.co2  39  GLU39      -0.2457
     10  N         52.5730   18.6570   34.1640 N.3   103  PRO103     -0.2116
     11  CA        51.4780   17.6730   34.1750 C.3   103  PRO103      0.1372
     12  C         51.9250   16.2200   34.2490 C.2   103  PRO103      0.2244
     13  O         51.1920   15.3690   34.7610 O.2   103  PRO103     -0.2868
     14  CB        50.7390   17.9530   32.8630 C.3   103  PRO103      0.0268
     15  CG        51.0110   19.4440   32.6350 C.3   103  PRO103      0.0207
     16  CD        52.4670   19.5660   33.0040 C.3   103  PRO103      0.0892
     17  N         51.6580   13.9310   37.3140 N.3   106  TYR106     -0.1227
     18  CA        51.0160   14.6390   38.4230 C.3   106  TYR106      0.1736
     19  C         49.7700   13.7940   38.7010 C.2   106  TYR106      0.2595
     20  O         48.8450   13.7320   37.8880 O.2   106  TYR106     -0.2718
     21  CB        50.6210   16.0440   37.9960 C.3   106  TYR106      0.0548
     22  CG        50.0230   16.8740   39.1000 C.ar  106  TYR106     -0.0200
     23  CD1       50.8080   17.3170   40.1700 C.ar  106  TYR106     -0.0009
     24  CD2       48.6860   17.2420   39.0700 C.ar  106  TYR106     -0.0009
     25  CE1       50.2640   18.1200   41.1770 C.ar  106  TYR106      0.0417
     26  CE2       48.1330   18.0450   40.0770 C.ar  106  TYR106      0.0417
     27  CZ        48.9250   18.4830   41.1170 C.ar  106  TYR106      0.1957
     28  OH        48.3840   19.3160   42.0830 O.3   106  TYR106     -0.2866
     29  N         49.7530   13.1360   39.8560 N.am  107  TYR107     -0.1976
     30  CA        48.6760   12.2140   40.2140 C.3   107  TYR107      0.1639
     31  C         48.4540   11.2290   39.0740 C.2   107  TYR107      0.2290
     32  O         47.3360   10.8400   38.7490 O.2   107  TYR107     -0.2864
     33  CB        47.3980   12.9610   40.6100 C.3   107  TYR107      0.0560
     34  CG        47.6150   13.6110   41.9490 C.ar  107  TYR107     -0.0198
     35  CD1       48.2920   14.8220   42.0440 C.ar  107  TYR107     -0.0009
     36  CD2       47.3100   12.9290   43.1340 C.ar  107  TYR107     -0.0009
     37  CE1       48.6790   15.3420   43.2780 C.ar  107  TYR107      0.0417
     38  CE2       47.6960   13.4400   44.3740 C.ar  107  TYR107      0.0417
     39  CZ        48.3840   14.6420   44.4400 C.ar  107  TYR107      0.1957
     40  OH        48.8260   15.1410   45.6490 O.3   107  TYR107     -0.2866
     41  N         48.9050   11.6030   35.8500 N.3   109  PHE109     -0.1241
     42  CA        48.4430   12.0860   34.5380 C.3   109  PHE109      0.1605
     43  C         49.5100   11.5470   33.5740 C.2   109  PHE109      0.2264
     44  O         50.6980   11.7410   33.7910 O.2   109  PHE109     -0.2867
     45  CB        48.3820   13.6070   34.5220 C.3   109  PHE109      0.0534
     46  CG        47.8230   14.1680   33.2530 C.ar  109  PHE109     -0.0203
     47  CD1       46.4520   14.1320   33.0080 C.ar  109  PHE109     -0.0042
     48  CD2       48.6710   14.7130   32.2860 C.ar  109  PHE109     -0.0042
     49  CE1       45.9280   14.6250   31.8310 C.ar  109  PHE109     -0.0003
     50  CE2       48.1540   15.2080   31.0950 C.ar  109  PHE109     -0.0003
     51  CZ        46.7790   15.1680   30.8640 C.ar  109  PHE109     -0.0000
     52  N         47.7240   19.2340   28.6250 N.3   114  CYS114     -0.1235
     53  CA        46.3220   18.8370   28.4620 C.3   114  CYS114      0.1677
     54  C         45.8150   19.4120   27.1520 C.2   114  CYS114      0.2270
     55  O         46.0400   20.5890   26.8740 O.2   114  CYS114     -0.2867
     56  CB        45.4420   19.3820   29.5860 C.3   114  CYS114      0.0956
     57  SG        45.8750   18.7790   31.2080 S.3   114  CYS114     -0.0801
     58  N         41.5170   19.0190   31.0310 N.3   123  HIS123     -0.1241
     59  CA        42.2340   17.7860   31.3280 C.3   123  HIS123      0.1621
     60  C         42.1330   16.6770   30.2950 C.2   123  HIS123      0.2264
     61  O         42.2840   15.4950   30.6090 O.2   123  HIS123     -0.2867
     62  CB        41.8200   17.3300   32.7380 C.3   123  HIS123      0.0745
     63  CG        42.1100   18.3630   33.7830 C.ar  123  HIS123      0.0817
     64  ND1       41.5000   18.3850   35.0190 N.ar  123  HIS123     -0.2268
     65  CD2       42.9390   19.4350   33.7550 C.ar  123  HIS123      0.1154
     66  CE1       41.9380   19.4250   35.7070 C.ar  123  HIS123      0.1986
     67  NE2       42.8140   20.0800   34.9610 N.ar  123  HIS123     -0.2212
     68  N         46.7530   23.3610   27.4930 N.3   140  ASP140     -0.1239
     69  CA        47.1220   23.8780   28.8090 C.3   140  ASP140      0.1674
     70  C         48.5400   23.3860   29.0980 C.2   140  ASP140      0.2266
     71  O         48.8300   22.1860   29.0940 O.2   140  ASP140     -0.2867
     72  CB        46.1120   23.4010   29.8750 C.3   140  ASP140      0.1410
     73  CG        46.2410   24.1690   31.1930 C.2   140  ASP140      0.3668
     74  OD1       47.2420   24.8830   31.3800 O.co2 140  ASP140     -0.2456
     75  OD2       45.3380   24.0440   32.0450 O.co2 140  ASP140     -0.2456
     76  N         35.9700   23.2080   38.6670 N.3   211  TYR211     -0.1227
     77  CA        37.3900   23.4990   38.5110 C.3   211  TYR211      0.1736
     78  C         37.6000   24.9930   38.7110 C.2   211  TYR211      0.2595
     79  O         36.8270   25.8010   38.1990 O.2   211  TYR211     -0.2718
     80  CB        37.8480   23.0730   37.1040 C.3   211  TYR211      0.0548
     81  CG        37.7340   21.5800   36.8820 C.ar  211  TYR211     -0.0200
     82  CD1       38.7210   20.7070   37.3500 C.ar  211  TYR211     -0.0009
     83  CD2       36.6020   21.0350   36.2810 C.ar  211  TYR211     -0.0009
     84  CE1       38.5820   19.3360   37.2310 C.ar  211  TYR211      0.0417
     85  CE2       36.4470   19.6490   36.1580 C.ar  211  TYR211      0.0417
     86  CZ        37.4400   18.8120   36.6340 C.ar  211  TYR211      0.1957
     87  OH        37.2930   17.4470   36.5200 O.3   211  TYR211     -0.2866
     88  N         38.6440   25.3540   39.4520 N.am  212  CYS212     -0.1970
     89  CA        38.9120   26.7660   39.7360 C.3   212  CYS212      0.1712
     90  C         40.3640   27.1690   39.5100 C.2   212  CYS212      0.2296
     91  O         41.2410   26.3100   39.3230 O.2   212  CYS212     -0.2864
     92  CB        38.5820   27.0720   41.1970 C.3   212  CYS212      0.0983
     93  SG        36.9580   26.5190   41.7730 S.3   212  CYS212     -0.0798
     94  N         43.9560   28.8400   40.7560 N.3   214  HIS214     -0.1241
     95  CA        44.7110   28.3850   41.9150 C.3   214  HIS214      0.1621
     96  C         46.0190   29.1060   42.1440 C.2   214  HIS214      0.2264
     97  O         46.6380   29.6380   41.2180 O.2   214  HIS214     -0.2867
     98  CB        45.0380   26.9010   41.7130 C.3   214  HIS214      0.0745
     99  CG        45.7280   26.6240   40.4060 C.ar  214  HIS214      0.0817
    100  ND1       47.1010   26.5870   40.2790 N.ar  214  HIS214     -0.2268
    101  CD2       45.2290   26.4750   39.1570 C.ar  214  HIS214      0.1154
    102  CE1       47.4180   26.4330   39.0020 C.ar  214  HIS214      0.1986
    103  NE2       46.2980   26.3650   38.3040 N.ar  214  HIS214     -0.2212
    104  N         52.1720   23.2880   42.4160 N.3   220  PHE220     -0.1227
    105  CA        51.4220   23.3820   41.1560 C.3   220  PHE220      0.1736
    106  C         50.0470   23.9680   41.4680 C.2   220  PHE220      0.2595
    107  O         49.6250   24.9400   40.8500 O.2   220  PHE220     -0.2718
    108  CB        51.3110   21.9670   40.5560 C.3   220  PHE220      0.0547
    109  CG        50.7920   21.8910   39.1260 C.ar  220  PHE220     -0.0202
    110  CD1       50.2680   22.9900   38.4500 C.ar  220  PHE220     -0.0042
    111  CD2       50.7940   20.6500   38.4850 C.ar  220  PHE220     -0.0042
    112  CE1       49.7430   22.8390   37.1420 C.ar  220  PHE220     -0.0003
    113  CE2       50.2840   20.4830   37.2060 C.ar  220  PHE220     -0.0003
    114  CZ        49.7510   21.5860   36.5280 C.ar  220  PHE220     -0.0000
    115  N         49.3560   23.3860   42.4490 N.am  221  HIS221     -0.1975
    116  CA        48.0400   23.8810   42.8290 C.3   221  HIS221      0.1656
    117  C         47.9960   24.0900   44.3290 C.2   221  HIS221      0.2291
    118  O         48.1760   23.1460   45.0900 O.2   221  HIS221     -0.2864
    119  CB        46.9440   22.8920   42.4380 C.3   221  HIS221      0.0771
    120  CG        46.9280   22.5670   40.9800 C.ar  221  HIS221      0.0820
    121  ND1       47.5720   21.4660   40.4600 N.ar  221  HIS221     -0.2267
    122  CD2       46.3660   23.2100   39.9310 C.ar  221  HIS221      0.1154
    123  CE1       47.4070   21.4440   39.1520 C.ar  221  HIS221      0.1986
    124  NE2       46.6800   22.4900   38.8020 N.ar  221  HIS221     -0.2212
    125  N         41.5040   31.0280   35.2460 N.3   247  GLU247     -0.1245
    126  CA        41.3790   30.1400   34.0790 C.3   247  GLU247      0.1567
    127  C         39.9360   29.7030   33.8510 C.2   247  GLU247      0.2260
    128  O         39.6020   28.5100   33.8570 O.2   247  GLU247     -0.2867
    129  CB        42.2810   28.9150   34.2940 C.3   247  GLU247      0.0388
    130  CG        42.0470   28.1270   35.6140 C.3   247  GLU247      0.1160
    131  CD        43.0950   27.0460   35.7930 C.2   247  GLU247      0.3649
    132  OE1       44.0490   27.2870   36.5550 O.co2 247  GLU247     -0.2457
    133  OE2       42.9750   25.9830   35.1440 O.co2 247  GLU247     -0.2457
    134  N         36.4490   28.4300   32.5280 N.3   249  MET249     -0.1245
    135  CA        35.9840   27.4490   31.5490 C.3   249  MET249      0.1570
    136  C         34.5160   27.8150   31.3640 C.2   249  MET249      0.2261
    137  O         33.7120   27.7430   32.3090 O.2   249  MET249     -0.2867
    138  CB        36.1270   26.0470   32.1120 C.3   249  MET249      0.0387
    139  CG        37.5800   25.5950   32.2530 C.3   249  MET249      0.0595
    140  SD        37.7640   24.4390   33.6000 S.3   249  MET249     -0.1393
    141  CE        38.0920   25.6870   34.9040 C.3   249  MET249      0.0692
    142  N         40.3230   11.4890   34.1340 N.3   264  TRP264     -0.1241
    143  CA        40.8200   12.8420   33.9150 C.3   264  TRP264      0.1605
    144  C         39.9790   13.7380   33.0280 C.2   264  TRP264      0.2264
    145  O         39.6950   14.8830   33.3800 O.2   264  TRP264     -0.2867
    146  CB        42.2300   12.7930   33.3090 C.3   264  TRP264      0.0550
    147  CG        43.2830   12.4610   34.3060 C.ar  264  TRP264      0.0003
    148  CD1       43.9270   11.2610   34.4600 C.ar  264  TRP264      0.0946
    149  CD2       43.8250   13.3420   35.2900 C.ar  264  TRP264      0.0152
    150  NE1       44.8450   11.3490   35.4830 N.ar  264  TRP264     -0.2442
    151  CE2       44.8030   12.6140   36.0090 C.ar  264  TRP264      0.0810
    152  CE3       43.5850   14.6800   35.6340 C.ar  264  TRP264      0.0012
    153  CZ2       45.5430   13.1820   37.0540 C.ar  264  TRP264      0.0191
    154  CZ3       44.3240   15.2480   36.6780 C.ar  264  TRP264      0.0001
    155  CH2       45.2910   14.4940   37.3720 C.ar  264  TRP264      0.0015
@<TRIPOS>BOND
     1    55    54    2
     2    54    53    1
     3    68    69    1
     4    53    52    1
     5    53    56    1
     6    69    70    1
     7    69    72    1
     8    71    70    2
     9    56    57    1
    10    72    73    1
    11    60    61    2
    12    60    59    1
    13    51    50   ar
    14    51    49   ar
    15    58    59    1
    16    50    48   ar
    17    73    74   ar
    18    73    75   ar
    19    59    62    1
    20   136   135    1
    21   136   137    2
    22   135   138    1
    23   135   134    1
    24    49    47   ar
    25   138   139    1
    26   139   140    1
    27    48    46   ar
    28    15    14    1
    29    15    16    1
    30    62    63    1
    31    14    11    1
    32    16    10    1
    33    47    46   ar
    34   144   145    2
    35   144   143    1
    36    46    45    1
    37   146   143    1
    38   146   147    1
    39    43    44    2
    40    43    42    1
    41   140   141    1
    42    65    63   ar
    43    65    67   ar
    44    63    64   ar
    45   127   128    2
    46   127   126    1
    47   143   142    1
    48   126   129    1
    49   126   125    1
    50    10    11    1
    51    11    12    1
    52    12    13    2
    53   129   130    1
    54   147   148   ar
    55   147   149   ar
    56   148   150   ar
    57    45    42    1
    58    42    41    1
    59    67    66   ar
    60    64    66   ar
    61   133   131   ar
    62   149   152   ar
    63   149   151   ar
    64   150   151   ar
    65   130   131    1
    66   152   154   ar
    67   131   132   ar
    68   151   153   ar
    69    85    83   ar
    70    85    86   ar
    71    83    81   ar
    72    87    86    1
    73   114   112   ar
    74   114   113   ar
    75    86    84   ar
    76   154   155   ar
    77    81    80    1
    78    81    82   ar
    79   153   155   ar
    80    80    77    1
    81   112   110   ar
    82   113   111   ar
    83    84    82   ar
    84    17    18    1
    85    20    19    2
    86    21    18    1
    87    21    22    1
    88    79    78    2
    89   103   102   ar
    90   103   101   ar
    91    18    19    1
    92   110   109   ar
    93   111   109   ar
    94    77    76    1
    95    77    78    1
    96    19    29   am
    97    78    88   am
    98    32    31    2
    99   124   123   ar
   100   124   122   ar
   101   102   100   ar
   102    24    22   ar
   103    24    26   ar
   104    31    30    1
   105    22    23   ar
   106   109   108    1
   107   123   121   ar
   108   101    99   ar
   109    91    90    2
   110    88    89    1
   111    90    89    1
   112    89    92    1
   113    29    30    1
   114   122   120   ar
   115    26    27   ar
   116    23    25   ar
   117    30    33    1
   118   100    99   ar
   119    99    98    1
   120   121   120   ar
   121   108   105    1
   122    33    34    1
   123    94    95    1
   124   107   106    2
   125   120   119    1
   126    27    25   ar
   127    27    28    1
   128   105   106    1
   129   105   104    1
   130    92    93    1
   131    97    96    2
   132   106   115   am
   133    98    95    1
   134    95    96    1
   135    34    35   ar
   136    34    36   ar
   137    35    37   ar
   138   119   116    1
   139   115   116    1
   140   116   117    1
   141    36    38   ar
   142    37    39   ar
   143     9     7   ar
   144   117   118    2
   145     8     7   ar
   146    38    39   ar
   147    39    40    1
   148     7     6    1
   149     6     5    1
   150     5     2    1
   151     2     1    1
   152     2     3    1
   153     3     4    2
