@<TRIPOS>MOLECULE
tmp/2nq7A00.pdb
 147 146 0 0 0
SMALL
GASTEIGER

@<TRIPOS>ATOM
      1  N         22.8060   31.2500   29.6760 N.3    39  GLU39      -0.1245
      2  CA        22.5970   30.6610   28.3580 C.3    39  GLU39       0.1567
      3  C         23.6690   31.0880   27.3600 C.2    39  GLU39       0.2260
      4  O         24.2170   30.2640   26.6290 O.2    39  GLU39      -0.2867
      5  CB        21.2170   31.0460   27.8250 C.3    39  GLU39       0.0388
      6  CG        20.3730   29.8540   27.4170 C.3    39  GLU39       0.1160
      7  CD        18.9530   30.2420   27.0670 C.2    39  GLU39       0.3649
      8  OE1       18.7830   31.1050   26.1810 O.co2  39  GLU39      -0.2457
      9  OE2       18.0140   29.6820   27.6750 O.co2  39  GLU39      -0.2457
     10  N          8.4830   32.2750   29.0650 N.3   103  PRO103     -0.2116
     11  CA         8.5150   33.2550   27.9720 C.3   103  PRO103      0.1372
     12  C          8.5440   34.7160   28.4230 C.2   103  PRO103      0.2244
     13  O          9.0170   35.5920   27.6950 O.2   103  PRO103     -0.2868
     14  CB         7.2380   32.9440   27.1860 C.3   103  PRO103      0.0268
     15  CG         7.0100   31.4920   27.4460 C.3   103  PRO103      0.0207
     16  CD         7.3250   31.3730   28.9210 C.3   103  PRO103      0.0892
     17  N         11.7060   36.8860   28.1960 N.3   106  TYR106     -0.1227
     18  CA        12.8220   36.1330   27.6290 C.3   106  TYR106      0.1736
     19  C         13.2020   36.9490   26.3880 C.2   106  TYR106      0.2595
     20  O         12.4450   37.0170   25.4180 O.2   106  TYR106     -0.2718
     21  CB        12.3820   34.7180   27.2360 C.3   106  TYR106      0.0548
     22  CG        13.5080   33.8550   26.7020 C.ar  106  TYR106     -0.0200
     23  CD1       14.5600   33.4640   27.5260 C.ar  106  TYR106     -0.0009
     24  CD2       13.4910   33.3920   25.3880 C.ar  106  TYR106     -0.0009
     25  CE1       15.5680   32.6200   27.0550 C.ar  106  TYR106      0.0417
     26  CE2       14.4900   32.5490   24.9050 C.ar  106  TYR106      0.0417
     27  CZ        15.5230   32.1670   25.7450 C.ar  106  TYR106      0.1957
     28  OH        16.4980   31.3190   25.2740 O.3   106  TYR106     -0.2866
     29  N         14.3710   37.5790   26.4350 N.am  107  TYR107     -0.1976
     30  CA        14.8160   38.4590   25.3550 C.3   107  TYR107      0.1639
     31  C         13.7070   39.4660   25.0540 C.2   107  TYR107      0.2290
     32  O         13.4100   39.8010   23.9030 O.2   107  TYR107     -0.2864
     33  CB        15.2300   37.6510   24.1200 C.3   107  TYR107      0.0560
     34  CG        16.5310   36.9250   24.3860 C.ar  107  TYR107     -0.0198
     35  CD1       16.5430   35.7250   25.0870 C.ar  107  TYR107     -0.0009
     36  CD2       17.7560   37.5150   24.0690 C.ar  107  TYR107     -0.0009
     37  CE1       17.7400   35.1280   25.4840 C.ar  107  TYR107      0.0417
     38  CE2       18.9630   36.9280   24.4570 C.ar  107  TYR107      0.0417
     39  CZ        18.9480   35.7390   25.1690 C.ar  107  TYR107      0.1957
     40  OH        20.1290   35.1830   25.6060 O.3   107  TYR107     -0.2866
     41  N         10.4760   39.2090   25.3330 N.3   109  PHE109     -0.1241
     42  CA         9.1870   38.7320   24.8350 C.3   109  PHE109      0.1605
     43  C          8.2050   39.2960   25.8860 C.2   109  PHE109      0.2264
     44  O          8.4040   39.1190   27.0960 O.2   109  PHE109     -0.2867
     45  CB         9.1690   37.2040   24.8020 C.3   109  PHE109      0.0534
     46  CG         7.9060   36.6330   24.2320 C.ar  109  PHE109     -0.0203
     47  CD1        7.6920   36.6100   22.8560 C.ar  109  PHE109     -0.0042
     48  CD2        6.8960   36.1800   25.0790 C.ar  109  PHE109     -0.0042
     49  CE1        6.4900   36.1490   22.3330 C.ar  109  PHE109     -0.0003
     50  CE2        5.6830   35.7200   24.5670 C.ar  109  PHE109     -0.0003
     51  CZ         5.4830   35.7060   23.1830 C.ar  109  PHE109     -0.0000
     52  N          3.1600   31.7080   24.0110 N.3   114  CYS114     -0.1235
     53  CA         3.0440   32.1190   22.6140 C.3   114  CYS114      0.1677
     54  C          1.7460   31.5600   22.0410 C.2   114  CYS114      0.2270
     55  O          1.4470   30.3760   22.2150 O.2   114  CYS114     -0.2867
     56  CB         4.1920   31.5800   21.7590 C.3   114  CYS114      0.0956
     57  SG         5.8180   32.0650   22.2690 S.3   114  CYS114     -0.0801
     58  N          5.8210   31.8500   17.9410 N.3   123  HIS123     -0.1241
     59  CA         6.1060   33.0800   18.6560 C.3   123  HIS123      0.1621
     60  C          5.0950   34.2140   18.5040 C.2   123  HIS123      0.2264
     61  O          5.4340   35.3920   18.6420 O.2   123  HIS123     -0.2867
     62  CB         7.5310   33.5290   18.3050 C.3   123  HIS123      0.0745
     63  CG         8.5660   32.4890   18.6230 C.ar  123  HIS123      0.0817
     64  ND1        9.8450   32.5160   18.1080 N.ar  123  HIS123     -0.2268
     65  CD2        8.4970   31.3830   19.4020 C.ar  123  HIS123      0.1154
     66  CE1       10.5190   31.4700   18.5570 C.ar  123  HIS123      0.1986
     67  NE2        9.7230   30.7660   19.3430 N.ar  123  HIS123     -0.2212
     68  N          1.9730   27.6020   22.9730 N.3   140  ASP140     -0.1239
     69  CA         3.2650   27.0530   23.3800 C.3   140  ASP140      0.1674
     70  C          3.5040   27.5430   24.8040 C.2   140  ASP140      0.2266
     71  O          3.5220   28.7480   25.0830 O.2   140  ASP140     -0.2867
     72  CB         4.3870   27.5400   22.4460 C.3   140  ASP140      0.1410
     73  CG         5.6690   26.7380   22.6090 C.2   140  ASP140      0.3668
     74  OD1        5.7660   25.9770   23.5920 O.co2 140  ASP140     -0.2456
     75  OD2        6.5810   26.8610   21.7570 O.co2 140  ASP140     -0.2456
     76  N         13.4610   27.5520   12.5110 N.3   211  TYR211     -0.1227
     77  CA        13.3270   27.2650   13.9350 C.3   211  TYR211      0.1736
     78  C         13.4820   25.7640   14.1400 C.2   211  TYR211      0.2595
     79  O         12.9650   24.9670   13.3500 O.2   211  TYR211     -0.2718
     80  CB        11.9610   27.7550   14.4240 C.3   211  TYR211      0.0548
     81  CG        11.7810   29.2560   14.2790 C.ar  211  TYR211     -0.0200
     82  CD1       12.2260   30.1290   15.2710 C.ar  211  TYR211     -0.0009
     83  CD2       11.2130   29.8040   13.1260 C.ar  211  TYR211     -0.0009
     84  CE1       12.1110   31.5160   15.1190 C.ar  211  TYR211      0.0417
     85  CE2       11.0970   31.1910   12.9620 C.ar  211  TYR211      0.0417
     86  CZ        11.5500   32.0380   13.9640 C.ar  211  TYR211      0.1957
     87  OH        11.4520   33.4050   13.8060 O.3   211  TYR211     -0.2866
     88  N         14.1840   25.3880   15.2100 N.am  212  CYS212     -0.1970
     89  CA        14.4460   23.9800   15.5060 C.3   212  CYS212      0.1712
     90  C         14.1440   23.5560   16.9350 C.2   212  CYS212      0.2296
     91  O         13.8960   24.3920   17.7960 O.2   212  CYS212     -0.2864
     92  CB        15.9170   23.6820   15.2350 C.3   212  CYS212      0.0983
     93  SG        16.4530   24.1720   13.5840 S.3   212  CYS212     -0.0798
     94  N         15.2170   21.8900   20.5780 N.3   214  HIS214     -0.1241
     95  CA        16.3630   22.3240   21.3620 C.3   214  HIS214      0.1621
     96  C         16.5240   21.6170   22.6910 C.2   214  HIS214      0.2264
     97  O         15.5700   21.0890   23.2630 O.2   214  HIS214     -0.2867
     98  CB        16.2020   23.8030   21.6610 C.3   214  HIS214      0.0745
     99  CG        14.9070   24.1150   22.3530 C.ar  214  HIS214      0.0817
    100  ND1       14.7690   24.0900   23.7260 N.ar  214  HIS214     -0.2268
    101  CD2       13.6650   24.3190   21.8530 C.ar  214  HIS214      0.1154
    102  CE1       13.4950   24.2600   24.0400 C.ar  214  HIS214      0.1986
    103  NE2       12.8050   24.3980   22.9200 N.ar  214  HIS214     -0.2212
    104  N         16.6340   27.4280   28.9600 N.3   220  PHE220     -0.1227
    105  CA        15.4190   27.3640   28.1450 C.3   220  PHE220      0.1736
    106  C         15.7770   26.7620   26.7800 C.2   220  PHE220      0.2595
    107  O         15.1450   25.7970   26.3330 O.2   220  PHE220     -0.2718
    108  CB        14.8620   28.7840   28.0130 C.3   220  PHE220      0.0547
    109  CG        13.4670   28.8800   27.4300 C.ar  220  PHE220     -0.0202
    110  CD1       12.8340   27.7830   26.8400 C.ar  220  PHE220     -0.0042
    111  CD2       12.8140   30.1120   27.4220 C.ar  220  PHE220     -0.0042
    112  CE1       11.5740   27.9250   26.2460 C.ar  220  PHE220     -0.0003
    113  CE2       11.5580   30.2610   26.8300 C.ar  220  PHE220     -0.0003
    114  CZ        10.9400   29.1680   26.2410 C.ar  220  PHE220     -0.0000
    115  N         16.7920   27.3240   26.1210 N.am  221  HIS221     -0.1975
    116  CA        17.2490   26.8150   24.8270 C.3   221  HIS221      0.1656
    117  C         18.7550   26.6130   24.8770 C.2   221  HIS221      0.2291
    118  O         19.5030   27.5390   25.1760 O.2   221  HIS221     -0.2864
    119  CB        16.9160   27.7810   23.6870 C.3   221  HIS221      0.0771
    120  CG        15.4630   28.1290   23.5990 C.ar  221  HIS221      0.0820
    121  ND1       14.9200   29.2140   24.2520 N.ar  221  HIS221     -0.2267
    122  CD2       14.4380   27.5250   22.9530 C.ar  221  HIS221      0.1154
    123  CE1       13.6230   29.2620   24.0130 C.ar  221  HIS221      0.1986
    124  NE2       13.3040   28.2490   23.2280 N.ar  221  HIS221     -0.2212
    125  N          9.8090   19.8090   18.0000 N.3   247  GLU247     -0.1245
    126  CA         8.6510   20.6970   17.8440 C.3   247  GLU247      0.1567
    127  C          8.4520   21.1260   16.4030 C.2   247  GLU247      0.2260
    128  O          8.4830   22.3110   16.0660 O.2   247  GLU247     -0.2867
    129  CB         8.8250   21.9250   18.7480 C.3   247  GLU247      0.0388
    130  CG        10.1210   22.7080   18.5490 C.3   247  GLU247      0.1160
    131  CD        10.2830   23.7990   19.5930 C.2   247  GLU247      0.3649
    132  OE1       10.9810   23.5540   20.6010 O.co2 247  GLU247     -0.2457
    133  OE2        9.6940   24.8860   19.4130 O.co2 247  GLU247     -0.2457
    134  N          9.1170   39.3690   16.8340 N.3   264  TRP264     -0.1241
    135  CA         8.8610   38.0050   17.2960 C.3   264  TRP264      0.1605
    136  C          7.9750   37.1180   16.4340 C.2   264  TRP264      0.2264
    137  O          8.3150   35.9690   16.1360 O.2   264  TRP264     -0.2867
    138  CB         8.2380   38.0480   18.6940 C.3   264  TRP264      0.0550
    139  CG         9.2140   38.3310   19.7770 C.ar  264  TRP264      0.0003
    140  CD1        9.3740   39.5050   20.4630 C.ar  264  TRP264      0.0946
    141  CD2       10.1650   37.4140   20.3130 C.ar  264  TRP264      0.0152
    142  NE1       10.3700   39.3650   21.4030 N.ar  264  TRP264     -0.2442
    143  CE2       10.8710   38.0910   21.3310 C.ar  264  TRP264      0.0810
    144  CE3       10.4900   36.0770   20.0320 C.ar  264  TRP264      0.0012
    145  CZ2       11.8840   37.4790   22.0740 C.ar  264  TRP264      0.0191
    146  CZ3       11.4990   35.4660   20.7740 C.ar  264  TRP264      0.0001
    147  CH2       12.1830   36.1710   21.7840 C.ar  264  TRP264      0.0015
@<TRIPOS>BOND
     1    76    77    1
     2    85    83   ar
     3    85    86   ar
     4    83    81   ar
     5    79    78    2
     6    93    92    1
     7    87    86    1
     8    77    78    1
     9    77    80    1
    10    86    84   ar
    11    78    88   am
    12    81    80    1
    13    81    82   ar
    14    84    82   ar
    15    88    89    1
    16    92    89    1
    17    89    90    1
    18   128   127    2
    19   137   136    2
    20   127   126    1
    21   136   135    1
    22   134   135    1
    23    90    91    2
    24   135   138    1
    25   126   125    1
    26   126   129    1
    27    58    59    1
    28    64    66   ar
    29    64    63   ar
    30    62    63    1
    31    62    59    1
    32    60    61    2
    33    60    59    1
    34   130   129    1
    35   130   131    1
    36    66    67   ar
    37    63    65   ar
    38   138   139    1
    39    67    65   ar
    40   133   131   ar
    41   131   132   ar
    42   139   141   ar
    43   139   140   ar
    44   144   141   ar
    45   144   146   ar
    46   141   143   ar
    47   140   142   ar
    48    94    95    1
    49   146   147   ar
    50   143   142   ar
    51   143   145   ar
    52    95    98    1
    53    95    96    1
    54    98    99    1
    55    75    73   ar
    56    56    57    1
    57    56    53    1
    58   147   145   ar
    59   101    99   ar
    60   101   103   ar
    61    54    55    2
    62    54    53    1
    63    49    47   ar
    64    49    51   ar
    65    99   100   ar
    66    72    73    1
    67    72    69    1
    68    73    74   ar
    69    53    52    1
    70    96    97    2
    71    47    46   ar
    72   103   102   ar
    73   122   124   ar
    74   122   120   ar
    75    68    69    1
    76    51    50   ar
    77   124   123   ar
    78    69    70    1
    79   120   119    1
    80   120   121   ar
    81   119   116    1
    82   100   102   ar
    83    32    31    2
    84   123   121   ar
    85    36    34   ar
    86    36    38   ar
    87    33    34    1
    88    33    30    1
    89    46    45    1
    90    46    48   ar
    91    34    35   ar
    92    38    39   ar
    93    50    48   ar
    94    45    42    1
    95    70    71    2
    96   116   117    1
    97   116   115    1
    98    42    41    1
    99    42    43    1
   100   117   118    2
   101    26    24   ar
   102    26    27   ar
   103    31    30    1
   104    35    37   ar
   105    39    37   ar
   106    39    40    1
   107    28    27    1
   108    30    29    1
   109    24    22   ar
   110    20    19    2
   111    27    25   ar
   112    43    44    2
   113   115   106   am
   114     8     7   ar
   115   114   112   ar
   116   114   113   ar
   117   112   110   ar
   118   107   106    2
   119    19    29   am
   120    19    18    1
   121     4     3    2
   122    22    21    1
   123    22    23   ar
   124   106   105    1
   125   113   111   ar
   126   110   109   ar
   127    25    23   ar
   128     7     6    1
   129     7     9   ar
   130    14    15    1
   131    14    11    1
   132    21    18    1
   133     3     2    1
   134     6     5    1
   135   111   109   ar
   136   109   108    1
   137    15    16    1
   138    18    17    1
   139    13    12    2
   140     5     2    1
   141    11    12    1
   142    11    10    1
   143   108   105    1
   144   105   104    1
   145     2     1    1
   146    16    10    1
