@<TRIPOS>MOLECULE
tmp/2nq9D00.pdb
 186 182 0 0 0
SMALL
GASTEIGER

@<TRIPOS>ATOM
      1  N         40.6200    8.8960   15.1800 N.3     7  HIS7       -0.1226
      2  CA        41.7980    8.6900   15.9990 C.3     7  HIS7        0.1752
      3  C         42.0450   10.0500   16.6400 C.2     7  HIS7        0.2596
      4  O         42.6360   10.9420   16.0290 O.2     7  HIS7       -0.2718
      5  CB        43.0050    8.2830   15.1560 C.3     7  HIS7        0.0759
      6  CG        44.2330    8.0280   15.9720 C.ar    7  HIS7        0.0818
      7  ND1       44.9120    6.8300   15.9470 N.ar    7  HIS7       -0.2268
      8  CD2       44.8820    8.8090   16.8680 C.ar    7  HIS7        0.1154
      9  CE1       45.9250    6.8820   16.7940 C.ar    7  HIS7        0.1986
     10  NE2       45.9280    8.0730   17.3660 N.ar    7  HIS7       -0.2212
     11  N         41.5720   10.2020   17.8700 N.am    8  VAL8       -0.1966
     12  CA        41.7080   11.4580   18.5910 C.3     8  VAL8        0.1727
     13  C         43.0180   11.5810   19.3510 C.2     8  VAL8        0.2617
     14  O         43.7340   10.6020   19.5530 O.2     8  VAL8       -0.2715
     15  CB        40.5390   11.6540   19.5780 C.3     8  VAL8        0.0290
     16  CG1       39.2230   11.7610   18.8110 C.3     8  VAL8        0.0023
     17  CG2       40.4930   10.4950   20.5650 C.3     8  VAL8        0.0023
     18  N         43.3240   12.8030   19.7690 N.am    9  SER9       -0.1936
     19  CA        44.5470   13.0710   20.5060 C.3     9  SER9        0.2055
     20  C         44.4360   12.6090   21.9500 C.2     9  SER9        0.2643
     21  O         43.3870   12.7580   22.5770 O.2     9  SER9       -0.2714
     22  CB        44.8560   14.5660   20.4850 C.3     9  SER9        0.2130
     23  OG        45.9850   14.8510   21.2930 O.3     9  SER9       -0.2179
     24  N         45.5250   12.0480   22.4650 N.am   10  ALA10      -0.1963
     25  CA        45.5830   11.5820   23.8460 C.3    10  ALA10       0.1728
     26  C         46.4770   12.5280   24.6420 C.2    10  ALA10       0.2616
     27  O         46.9320   12.1970   25.7360 O.2    10  ALA10      -0.2715
     28  CB        46.1390   10.1650   23.9010 C.3    10  ALA10       0.0334
     29  N         46.7300   13.7060   24.0850 N.am   11  ALA11      -0.1963
     30  CA        47.5700   14.6890   24.7560 C.3    11  ALA11       0.1728
     31  C         46.9380   15.0970   26.0800 C.2    11  ALA11       0.2617
     32  O         45.7260   15.3160   26.1620 O.2    11  ALA11      -0.2715
     33  CB        47.7620   15.9110   23.8700 C.3    11  ALA11       0.0334
     34  N         47.7660   15.1860   27.1160 N.am   12  GLY12      -0.1940
     35  CA        47.2780   15.5750   28.4280 C.3    12  GLY12       0.2014
     36  C         46.7970   14.4130   29.2710 C.2    12  GLY12       0.2639
     37  O         46.5310   14.5740   30.4620 O.2    12  GLY12      -0.2714
     38  N         46.6840   13.2400   28.6580 N.am   13  GLY13      -0.1954
     39  CA        46.2250   12.0690   29.3820 C.3    13  GLY13       0.1869
     40  C         45.3200   11.2120   28.5220 C.2    13  GLY13       0.2309
     41  O         44.5790   11.7280   27.6840 O.2    13  GLY13      -0.2863
     42  N         46.7440    6.6400   20.7210 N.3    32  PHE32      -0.1241
     43  CA        48.0820    6.1330   20.9840 C.3    32  PHE32       0.1605
     44  C         48.1300    6.1520   22.5140 C.2    32  PHE32       0.2264
     45  O         47.6980    7.1290   23.1280 O.2    32  PHE32      -0.2867
     46  CB        49.1480    7.0820   20.4260 C.3    32  PHE32       0.0534
     47  CG        49.3210    6.9990   18.9350 C.ar   32  PHE32      -0.0203
     48  CD1       49.1610    8.1280   18.1380 C.ar   32  PHE32      -0.0042
     49  CD2       49.6770    5.7980   18.3290 C.ar   32  PHE32      -0.0042
     50  CE1       49.3540    8.0620   16.7600 C.ar   32  PHE32      -0.0003
     51  CE2       49.8720    5.7230   16.9520 C.ar   32  PHE32      -0.0003
     52  CZ        49.7100    6.8600   16.1660 C.ar   32  PHE32      -0.0000
     53  N         50.7850    6.1660   24.1510 N.3    34  LYS34      -0.1231
     54  CA        52.0520    6.8300   24.4390 C.3    34  LYS34       0.1693
     55  C         52.6050    7.4110   23.1420 C.2    34  LYS34       0.2592
     56  O         52.1240    7.0870   22.0580 O.2    34  LYS34      -0.2718
     57  CB        53.0610    5.8380   25.0240 C.3    34  LYS34       0.0285
     58  CG        53.1800    4.5410   24.2350 C.3    34  LYS34       0.0035
     59  CD        54.4310    3.7560   24.6110 C.3    34  LYS34       0.0206
     60  CE        55.6820    4.3810   24.0090 C.3    34  LYS34       0.1093
     61  NZ        55.6480    4.3400   22.5180 N.3    34  LYS34      -0.1314
     62  N         53.6130    8.2700   23.2650 N.am   35  ASN35      -0.1960
     63  CA        54.2590    8.8990   22.1160 C.3    35  ASN35       0.1819
     64  C         54.5750    7.8140   21.0850 C.2    35  ASN35       0.2621
     65  O         55.3060    6.8680   21.3800 O.2    35  ASN35      -0.2715
     66  CB        55.5520    9.5810   22.5790 C.3    35  ASN35       0.1195
     67  CG        56.2330   10.3690   21.4780 C.2    35  ASN35       0.2630
     68  OD1       56.3870    9.8920   20.3540 O.2    35  ASN35      -0.2716
     69  ND2       56.6640   11.5810   21.8040 N.am   35  ASN35      -0.0877
     70  N         54.0310    7.9540   19.8800 N.am   36  GLN36      -0.1963
     71  CA        54.2470    6.9630   18.8280 C.3    36  GLN36       0.1733
     72  C         55.6490    6.9970   18.2340 C.2    36  GLN36       0.2616
     73  O         56.0300    6.0880   17.4930 O.2    36  GLN36      -0.2715
     74  CB        53.2350    7.1530   17.6940 C.3    36  GLN36       0.0408
     75  CG        53.3260    8.5060   17.0030 C.3    36  GLN36       0.0908
     76  CD        52.9150    8.4580   15.5390 C.2    36  GLN36       0.2608
     77  OE1       52.7090    9.4960   14.9090 O.2    36  GLN36      -0.2717
     78  NE2       52.8090    7.2540   14.9890 N.am   36  GLN36      -0.0878
     79  N         56.4060    8.0430   18.5610 N.am   37  ARG37      -0.1963
     80  CA        57.7630    8.2230   18.0460 C.3    37  ARG37       0.1729
     81  C         58.8750    8.0190   19.0710 C.2    37  ARG37       0.2616
     82  O         60.0180    8.4170   18.8320 O.2    37  ARG37      -0.2715
     83  CB        57.9190    9.6210   17.4400 C.3    37  ARG37       0.0348
     84  CG        57.1320    9.8510   16.1770 C.3    37  ARG37       0.0492
     85  CD        57.5230   11.1670   15.5320 C.3    37  ARG37       0.2205
     86  NE        58.9520   11.2340   15.2330 N.pl3  37  ARG37      -0.0865
     87  CZ        59.4990   12.1330   14.4220 C.cat  37  ARG37       0.5346
     88  NH1       58.7360   13.0400   13.8280 N.pl3  37  ARG37       0.1354
     89  NH2       60.8070   12.1250   14.2020 N.pl3  37  ARG37       0.1354
     90  N         58.5470    7.4190   20.2090 N.am   38  GLN38      -0.1977
     91  CA        59.5460    7.1610   21.2400 C.3    38  GLN38       0.1601
     92  C         59.4780    5.7060   21.6780 C.2    38  GLN38       0.2287
     93  O         58.3970    5.1230   21.7770 O.2    38  GLN38      -0.2864
     94  CB        59.3420    8.0940   22.4390 C.3    38  GLN38       0.0394
     95  CG        59.6880    9.5480   22.1370 C.3    38  GLN38       0.0908
     96  CD        59.5950   10.4540   23.3530 C.2    38  GLN38       0.2608
     97  OE1       59.8570   11.6540   23.2640 O.2    38  GLN38      -0.2717
     98  NE2       59.2220    9.8850   24.4940 N.am   38  GLN38      -0.0878
     99  N         46.3180    2.1990   18.6300 N.3    69  HIS69      -0.1241
    100  CA        47.3050    1.9850   17.5760 C.3    69  HIS69       0.1621
    101  C         48.6770    1.9160   18.2370 C.2    69  HIS69       0.2264
    102  O         48.9660    2.7040   19.1370 O.2    69  HIS69      -0.2867
    103  CB        47.2490    3.1640   16.5970 C.3    69  HIS69       0.0745
    104  CG        47.8630    2.8910   15.2590 C.ar   69  HIS69       0.0817
    105  ND1       49.1790    2.5120   15.1000 N.ar   69  HIS69      -0.2268
    106  CD2       47.3450    2.9820   14.0110 C.ar   69  HIS69       0.1154
    107  CE1       49.4440    2.3820   13.8130 C.ar   69  HIS69       0.1986
    108  NE2       48.3480    2.6610   13.1300 N.ar   69  HIS69      -0.2212
    109  N         50.8230   -2.0410   12.2840 N.3   109  HIS109     -0.1241
    110  CA        51.2510   -2.3460   10.9270 C.3   109  HIS109      0.1621
    111  C         52.1440   -3.5800   11.0610 C.2   109  HIS109      0.2264
    112  O         52.9020   -3.7020   12.0240 O.2   109  HIS109     -0.2867
    113  CB        52.0200   -1.1700   10.3160 C.3   109  HIS109      0.0745
    114  CG        51.1990    0.0750   10.1600 C.ar  109  HIS109      0.0817
    115  ND1       51.6090    1.1460    9.3960 N.ar  109  HIS109     -0.2268
    116  CD2       50.0010    0.4270   10.6870 C.ar  109  HIS109      0.1154
    117  CE1       50.7010    2.1040    9.4580 C.ar  109  HIS109      0.1986
    118  NE2       49.7160    1.6940   10.2360 N.ar  109  HIS109     -0.2212
    119  N         46.8680   -4.1890   10.5380 N.3   145  GLU145     -0.1245
    120  CA        46.3590   -3.1990    9.5940 C.3   145  GLU145      0.1567
    121  C         47.0270   -3.3810    8.2340 C.2   145  GLU145      0.2260
    122  O         48.2330   -3.6210    8.1620 O.2   145  GLU145     -0.2867
    123  CB        46.6460   -1.7830   10.1010 C.3   145  GLU145      0.0388
    124  CG        45.9050   -0.6940    9.3300 C.3   145  GLU145      0.1160
    125  CD        46.3760    0.7000    9.6820 C.2   145  GLU145      0.3649
    126  OE1       46.8470    0.9110   10.8210 O.co2 145  GLU145     -0.2457
    127  OE2       46.2600    1.6000    8.8240 O.co2 145  GLU145     -0.2457
    128  N         42.2790   -0.3130    6.0920 N.3   179  ASP179     -0.1239
    129  CA        42.3720    1.1260    5.9050 C.3   179  ASP179      0.1674
    130  C         42.0870    1.3350    4.4150 C.2   179  ASP179      0.2266
    131  O         42.8070    0.8260    3.5530 O.2   179  ASP179     -0.2867
    132  CB        43.7840    1.5950    6.2900 C.3   179  ASP179      0.1410
    133  CG        43.9770    3.0840    6.1240 C.2   179  ASP179      0.3668
    134  OD1       44.4880    3.7230    7.0710 O.co2 179  ASP179     -0.2456
    135  OD2       43.6350    3.6100    5.0460 O.co2 179  ASP179     -0.2456
    136  N         44.9170    2.9440    2.3590 N.3   182  HIS182     -0.1241
    137  CA        45.9770    1.9730    2.1180 C.3   182  HIS182      0.1621
    138  C         45.5870    0.9850    1.0220 C.2   182  HIS182      0.2264
    139  O         46.3860    0.6950    0.1310 O.2   182  HIS182     -0.2867
    140  CB        46.2990    1.1900    3.3940 C.3   182  HIS182      0.0745
    141  CG        46.8700    2.0200    4.5010 C.ar  182  HIS182      0.0817
    142  ND1       47.2170    1.5060    5.7320 N.ar  182  HIS182     -0.2268
    143  CD2       47.1860    3.3360    4.5420 C.ar  182  HIS182      0.1154
    144  CE1       47.7270    2.4700    6.4820 C.ar  182  HIS182      0.1986
    145  NE2       47.7190    3.5900    5.7820 N.ar  182  HIS182     -0.2212
    146  N         51.2380    6.4280    0.8620 N.3   229  ASP229     -0.1239
    147  CA        50.3360    6.6010    1.9960 C.3   229  ASP229      0.1674
    148  C         50.0850    8.0730    2.3260 C.2   229  ASP229      0.2266
    149  O         50.8180    8.6750    3.1120 O.2   229  ASP229     -0.2867
    150  CB        50.9450    5.8960    3.2130 C.3   229  ASP229      0.1410
    151  CG        49.9790    5.7720    4.3810 C.2   229  ASP229      0.3668
    152  OD1       48.9110    6.4180    4.3810 O.co2 229  ASP229     -0.2456
    153  OD2       50.3020    5.0130    5.3170 O.co2 229  ASP229     -0.2456
    154  N         46.6870   10.3850    3.2910 N.3   231  HIS231     -0.1241
    155  CA        45.2510   10.4500    3.5560 C.3   231  HIS231      0.1621
    156  C         44.6100   11.7380    3.0760 C.2   231  HIS231      0.2264
    157  O         45.2880   12.6970    2.7220 O.2   231  HIS231     -0.2867
    158  CB        44.9690   10.3310    5.0620 C.3   231  HIS231      0.0745
    159  CG        45.5860    9.1370    5.7200 C.ar  231  HIS231      0.0817
    160  ND1       45.3310    8.8060    7.0320 N.ar  231  HIS231     -0.2268
    161  CD2       46.4640    8.2120    5.2620 C.ar  231  HIS231      0.1154
    162  CE1       46.0270    7.7320    7.3580 C.ar  231  HIS231      0.1986
    163  NE2       46.7240    7.3510    6.3020 N.ar  231  HIS231     -0.2212
    164  N         40.8450    8.8030    9.9830 N.3   261  GLU261     -0.1245
    165  CA        42.2210    9.2560   10.1610 C.3   261  GLU261      0.1567
    166  C         42.4170   10.3080    9.0730 C.2   261  GLU261      0.2260
    167  O         43.5090   10.4830    8.5270 O.2   261  GLU261     -0.2867
    168  CB        43.2270    8.1190    9.9810 C.3   261  GLU261      0.0388
    169  CG        43.0750    6.9820   10.9610 C.3   261  GLU261      0.1160
    170  CD        44.1140    5.9120   10.7370 C.2   261  GLU261      0.3649
    171  OE1       44.2920    5.5050    9.5730 O.co2 261  GLU261     -0.2457
    172  OE2       44.7470    5.4720   11.7220 O.co2 261  GLU261     -0.2457
    173  N         35.8510   16.5520   11.7480 N.3   268  TRP268     -0.1241
    174  CA        35.5780   15.1710   12.1350 C.3   268  TRP268      0.1605
    175  C         34.1480   14.9910   12.6210 C.2   268  TRP268      0.2264
    176  O         33.5160   13.9770   12.3380 O.2   268  TRP268     -0.2867
    177  CB        36.5460   14.6950   13.2230 C.3   268  TRP268      0.0550
    178  CG        37.8840   14.2700   12.7010 C.ar  268  TRP268      0.0003
    179  CD1       38.2170   14.0160   11.4000 C.ar  268  TRP268      0.0946
    180  CD2       39.0590   14.0080   13.4740 C.ar  268  TRP268      0.0152
    181  NE1       39.5280   13.6130   11.3160 N.ar  268  TRP268     -0.2442
    182  CE2       40.0680   13.5970   12.5750 C.ar  268  TRP268      0.0810
    183  CE3       39.3580   14.0780   14.8430 C.ar  268  TRP268      0.0012
    184  CZ2       41.3570   13.2570   13.0000 C.ar  268  TRP268      0.0191
    185  CZ3       40.6430   13.7380   15.2640 C.ar  268  TRP268      0.0001
    186  CH2       41.6240   13.3330   14.3420 C.ar  268  TRP268      0.0015
@<TRIPOS>BOND
     1   139   138    2
     2   146   147    1
     3   138   137    1
     4   147   148    1
     5   147   150    1
     6   137   136    1
     7   137   140    1
     8   148   149    2
     9   157   156    2
    10   156   155    1
    11   150   151    1
    12   154   155    1
    13   140   141    1
    14   131   130    2
    15   155   158    1
    16   151   152   ar
    17   151   153   ar
    18   130   129    1
    19   141   143   ar
    20   141   142   ar
    21   143   145   ar
    22   135   133   ar
    23   158   159    1
    24   161   159   ar
    25   161   163   ar
    26   159   160   ar
    27   142   144   ar
    28   145   144   ar
    29   129   128    1
    30   129   132    1
    31   133   132    1
    32   133   134   ar
    33   163   162   ar
    34   160   162   ar
    35   122   121    2
    36   121   120    1
    37   167   166    2
    38   127   125   ar
    39   166   165    1
    40   124   125    1
    41   124   123    1
    42   115   117   ar
    43   115   114   ar
    44   117   118   ar
    45   171   170   ar
    46   120   123    1
    47   120   119    1
    48   125   126   ar
    49   168   165    1
    50   168   169    1
    51   164   165    1
    52   114   113    1
    53   114   116   ar
    54   118   116   ar
    55   113   110    1
    56   170   169    1
    57   170   172   ar
    58   110   111    1
    59   110   109    1
    60   111   112    2
    61   181   179   ar
    62   181   182   ar
    63   179   178   ar
    64   173   174    1
    65   174   175    1
    66   174   177    1
    67   176   175    2
    68   182   184   ar
    69   182   180   ar
    70   178   177    1
    71   178   180   ar
    72   184   186   ar
    73   108   107   ar
    74   108   106   ar
    75   180   183   ar
    76   107   105   ar
    77    88    87    1
    78   106   104   ar
    79    89    87    1
    80   186   185   ar
    81    87    86    2
    82   183   185   ar
    83    77    76    2
    84    78    76   am
    85   105   104   ar
    86     5     6    1
    87     5     2    1
    88     1     2    1
    89    86    85    1
    90   104   103    1
    91    85    84    1
    92    76    75    1
    93     7     6   ar
    94     7     9   ar
    95     6     8   ar
    96     2     3    1
    97     4     3    2
    98    52    50   ar
    99    52    51   ar
   100    84    83    1
   101   103   100    1
   102     3    11   am
   103    50    48   ar
   104     9    10   ar
   105     8    10   ar
   106    51    49   ar
   107    75    74    1
   108    83    80    1
   109    73    72    2
   110   100   101    1
   111   100    99    1
   112    74    71    1
   113    11    12    1
   114    80    79    1
   115    80    81    1
   116    48    47   ar
   117    72    79   am
   118    72    71    1
   119   101   102    2
   120    49    47   ar
   121    12    13    1
   122    12    15    1
   123    16    15    1
   124    71    70    1
   125    82    81    2
   126    47    46    1
   127    81    90   am
   128    13    14    2
   129    13    18   am
   130    15    17    1
   131    18    19    1
   132    70    64   am
   133    90    91    1
   134    68    67    2
   135    46    43    1
   136    22    19    1
   137    22    23    1
   138    19    20    1
   139    42    43    1
   140    43    44    1
   141    64    65    2
   142    64    63    1
   143    91    92    1
   144    91    94    1
   145    67    69   am
   146    67    66    1
   147    92    93    2
   148    20    24   am
   149    20    21    2
   150    56    55    2
   151    63    66    1
   152    63    62    1
   153    95    94    1
   154    95    96    1
   155    24    25    1
   156    44    45    2
   157    61    60    1
   158    55    62   am
   159    55    54    1
   160    97    96    2
   161    96    98   am
   162    25    28    1
   163    25    26    1
   164    33    30    1
   165    60    59    1
   166    29    26   am
   167    29    30    1
   168    53    54    1
   169    58    59    1
   170    58    57    1
   171    54    57    1
   172    26    27    2
   173    30    31    1
   174    31    32    2
   175    31    34   am
   176    34    35    1
   177    41    40    2
   178    35    36    1
   179    40    39    1
   180    38    36   am
   181    38    39    1
   182    36    37    2
