@<TRIPOS>MOLECULE
tmp/2nqaB01.pdb
 113 106 0 0 0
SMALL
GASTEIGER

@<TRIPOS>ATOM
      1  N         40.4250   18.4160   28.1950 N.3    39  ASP39      -0.1239
      2  CA        41.1470   18.6270   29.4580 C.3    39  ASP39       0.1674
      3  C         40.7500   19.9560   30.1200 C.2    39  ASP39       0.2266
      4  O         40.9540   20.1190   31.3150 O.2    39  ASP39      -0.2867
      5  CB        42.6640   18.5980   29.2390 C.3    39  ASP39       0.1410
      6  CG        43.1460   17.3080   28.5880 C.2    39  ASP39       0.3668
      7  OD1       42.6570   16.2150   28.9640 O.co2  39  ASP39      -0.2456
      8  OD2       44.0240   17.3950   27.6970 O.co2  39  ASP39      -0.2456
      9  N         55.0130   27.6680   33.1150 N.3    73  GLN73      -0.1245
     10  CA        53.8750   26.9580   32.5770 C.3    73  GLN73       0.1566
     11  C         52.9000   26.6070   33.7040 C.2    73  GLN73       0.2260
     12  O         53.3160   26.1770   34.7710 O.2    73  GLN73      -0.2867
     13  CB        54.3870   25.7050   31.8860 C.3    73  GLN73       0.0367
     14  CG        53.3850   24.9800   30.9960 C.3    73  GLN73       0.0905
     15  CD        53.9550   23.6910   30.4690 C.2    73  GLN73       0.2608
     16  OE1       55.1390   23.6270   30.1180 O.2    73  GLN73      -0.2717
     17  NE2       53.1390   22.6470   30.4400 N.am   73  GLN73      -0.0878
     18  N         49.1640   21.9910   28.7260 N.3    77  GLY77      -0.1225
     19  CA        50.2980   21.3560   28.0100 C.3    77  GLY77       0.1811
     20  C         50.8600   22.1300   26.8130 C.2    77  GLY77       0.2280
     21  O         51.2100   21.5350   25.8030 O.2    77  GLY77      -0.2866
     22  N         53.7460   23.4970   26.2040 N.3    79  CYS79      -0.1221
     23  CA        55.1980   23.5730   26.4740 C.3    79  CYS79       0.1808
     24  C         56.0310   24.0510   25.2760 C.2    79  CYS79       0.2601
     25  O         57.0260   24.7660   25.4590 O.2    79  CYS79      -0.2717
     26  CB        55.7580   22.2180   26.9450 C.3    79  CYS79       0.0970
     27  SG        55.3450   20.8050   25.8240 S.3    79  CYS79      -0.0800
     28  N         55.6630   23.6200   24.0780 N.am   80  TRP80      -0.1976
     29  CA        56.3550   24.0980   22.8770 C.3    80  TRP80       0.1640
     30  C         56.2270   25.6290   22.7660 C.2    80  TRP80       0.2290
     31  O         57.2260   26.3020   22.5480 O.2    80  TRP80      -0.2864
     32  CB        55.9030   23.4080   21.5840 C.3    80  TRP80       0.0576
     33  CG        56.6510   23.9520   20.4090 C.ar   80  TRP80       0.0006
     34  CD1       57.8320   23.4700   19.8840 C.ar   80  TRP80       0.0946
     35  CD2       56.3230   25.1280   19.6390 C.ar   80  TRP80       0.0152
     36  NE1       58.2390   24.2660   18.8370 N.ar   80  TRP80      -0.2442
     37  CE2       57.3400   25.2870   18.6690 C.ar   80  TRP80       0.0810
     38  CE3       55.2760   26.0670   19.6850 C.ar   80  TRP80       0.0012
     39  CZ2       57.3340   26.3360   17.7470 C.ar   80  TRP80       0.0191
     40  CZ3       55.2690   27.1010   18.7790 C.ar   80  TRP80       0.0001
     41  CH2       56.2880   27.2290   17.8120 C.ar   80  TRP80       0.0015
     42  N         47.8700   23.5210   23.5990 N.3   169  ALA169     -0.1231
     43  CA        48.4830   22.3010   24.1490 C.3   169  ALA169      0.1694
     44  C         48.6020   21.1770   23.1180 C.2   169  ALA169      0.2593
     45  O         47.6850   20.9570   22.3300 O.2   169  ALA169     -0.2718
     46  CB        47.6750   21.8060   25.3400 C.3   169  ALA169      0.0304
     47  N         49.7360   20.4670   23.1520 N.am  170  GLY170     -0.1942
     48  CA        49.9420   19.2190   22.3950 C.3   170  GLY170      0.2014
     49  C         50.8680   19.2880   21.1810 C.2   170  GLY170      0.2639
     50  O         51.3540   18.2730   20.6960 O.2   170  GLY170     -0.2714
     51  N         51.1230   20.4830   20.6820 N.am  171  GLY171     -0.1939
     52  CA        51.7140   20.6090   19.3500 C.3   171  GLY171      0.2014
     53  C         53.1210   21.1540   19.2910 C.2   171  GLY171      0.2639
     54  O         53.7320   21.4760   20.3100 O.2   171  GLY171     -0.2714
     55  N         53.6450   21.2280   18.0780 N.am  172  SER172     -0.1949
     56  CA        55.0140   21.7030   17.8620 C.3   172  SER172      0.1924
     57  C         54.9230   22.9840   17.0950 C.2   172  SER172      0.2314
     58  O         55.9040   23.4600   16.5410 O.2   172  SER172     -0.2863
     59  CB        55.8750   20.6510   17.1390 C.3   172  SER172      0.2116
     60  OG        55.6240   20.5810   15.7420 O.3   172  SER172     -0.2180
     61  N         63.5540   17.8710   22.8410 N.3   212  SER212     -0.1217
     62  CA        62.6150   16.9990   23.5430 C.3   212  SER212      0.1889
     63  C         63.0060   15.4980   23.4860 C.2   212  SER212      0.2288
     64  O         63.7770   15.0520   22.6350 O.2   212  SER212     -0.2866
     65  CB        61.1710   17.2060   23.0160 C.3   212  SER212      0.2089
     66  OG        60.9930   16.6330   21.7160 O.3   212  SER212     -0.2183
     67  N         58.7840    9.3300   23.1890 N.3   215  VAL215     -0.1245
     68  CA        58.2190    8.2360   23.9560 C.3   215  VAL215      0.1561
     69  C         57.6910    7.1380   23.0220 C.2   215  VAL215      0.2260
     70  O         57.5320    7.3660   21.8240 O.2   215  VAL215     -0.2867
     71  CB        57.1100    8.7440   24.8920 C.3   215  VAL215      0.0252
     72  CG1       57.7080    9.6240   25.9450 C.3   215  VAL215      0.0019
     73  CG2       56.0000    9.4590   24.1070 C.3   215  VAL215      0.0019
     74  N         51.9240    6.5690   24.9590 N.3   218  ALA218     -0.1245
     75  CA        51.2380    7.8230   25.3100 C.3   218  ALA218      0.1562
     76  C         51.2120    8.1010   26.8410 C.2   218  ALA218      0.2260
     77  O         51.3450    9.2550   27.2600 O.2   218  ALA218     -0.2867
     78  CB        49.8250    7.8570   24.7090 C.3   218  ALA218      0.0290
     79  N         54.2300   10.1100   28.2590 N.3   221  ALA221     -0.1231
     80  CA        54.2630   11.5660   28.1460 C.3   221  ALA221      0.1694
     81  C         54.2390   12.2490   29.5370 C.2   221  ALA221      0.2591
     82  O         53.4070   11.9290   30.4150 O.2   221  ALA221     -0.2718
     83  CB        53.1180   12.0900   27.2690 C.3   221  ALA221      0.0304
     84  N         55.1910   13.1660   29.7100 N.am  222  GLU222     -0.1979
     85  CA        55.3720   13.9770   30.9030 C.3   222  GLU222      0.1602
     86  C         55.8620   13.2570   32.1270 C.2   222  GLU222      0.2287
     87  O         55.9170   13.8610   33.1930 O.2   222  GLU222     -0.2864
     88  CB        54.1110   14.7540   31.2310 C.3   222  GLU222      0.0415
     89  CG        53.7500   15.7320   30.1870 C.3   222  GLU222      0.1163
     90  CD        53.4070   17.0260   30.8190 C.2   222  GLU222      0.3649
     91  OE1       52.2990   17.1210   31.4000 O.co2 222  GLU222     -0.2457
     92  OE2       54.2730   17.9300   30.7670 O.co2 222  GLU222     -0.2457
     93  N         58.5910   13.6790   26.5770 N.3   232  SER232     -0.1202
     94  CA        57.6320   14.2640   25.6220 C.3   232  SER232      0.2020
     95  C         57.2870   15.7270   25.9200 C.2   232  SER232      0.2619
     96  O         56.1260   16.1250   25.9000 O.2   232  SER232     -0.2717
     97  CB        56.3550   13.4080   25.5130 C.3   232  SER232      0.2103
     98  OG        55.7170   13.6170   24.2570 O.3   232  SER232     -0.2182
     99  N         58.3280   16.5090   26.1790 N.am  233  HIS233     -0.1961
    100  CA        58.2030   17.8260   26.8070 C.3   233  HIS233      0.1787
    101  C         59.2020   18.8150   26.1640 C.2   233  HIS233      0.2620
    102  O         60.4110   18.5760   26.1570 O.2   233  HIS233     -0.2715
    103  CB        58.4390   17.6930   28.3150 C.3   233  HIS233      0.0785
    104  CG        58.3470   18.9850   29.0790 C.ar  233  HIS233      0.0821
    105  ND1       57.2140   19.7630   29.0940 N.ar  233  HIS233     -0.2267
    106  CD2       59.2390   19.6150   29.8790 C.ar  233  HIS233      0.1154
    107  CE1       57.4110   20.8140   29.8680 C.ar  233  HIS233      0.1986
    108  NE2       58.6300   20.7400   30.3610 N.ar  233  HIS233     -0.2212
    109  N         58.6630   19.8970   25.6130 N.am  234  ALA234     -0.1977
    110  CA        59.4550   20.9620   24.9720 C.3   234  ALA234      0.1597
    111  C         60.3660   21.7020   25.9560 C.2   234  ALA234      0.2287
    112  O         59.8640   22.2730   26.9240 O.2   234  ALA234     -0.2864
    113  CB        58.5300   21.9500   24.3200 C.3   234  ALA234      0.0319
@<TRIPOS>BOND
     1    60    59    1
     2    58    57    2
     3    57    56    1
     4    59    56    1
     5    39    41   ar
     6    39    37   ar
     7    41    40   ar
     8    56    55    1
     9    55    53   am
    10    37    36   ar
    11    37    35   ar
    12    40    38   ar
    13    36    34   ar
    14    53    52    1
    15    53    54    2
    16    52    51    1
    17    35    38   ar
    18    35    33   ar
    19    34    33   ar
    20    33    32    1
    21    51    49   am
    22    50    49    2
    23    49    48    1
    24    32    29    1
    25    66    65    1
    26    70    69    2
    27    45    44    2
    28    48    47    1
    29    31    30    2
    30    64    63    2
    31    30    29    1
    32    61    62    1
    33    29    28    1
    34    65    62    1
    35    69    68    1
    36    44    47   am
    37    44    43    1
    38    67    68    1
    39    63    62    1
    40    42    43    1
    41    68    71    1
    42    28    24   am
    43    73    71    1
    44    43    46    1
    45    98    97    1
    46   113   110    1
    47    78    75    1
    48    71    72    1
    49    74    75    1
    50   110   109    1
    51   110   111    1
    52    24    25    2
    53    24    23    1
    54    75    76    1
    55    97    94    1
    56   109   101   am
    57    94    95    1
    58    94    93    1
    59    21    20    2
    60    27    26    1
    61    96    95    2
    62    95    99   am
    63   111   112    2
    64   102   101    2
    65   101   100    1
    66    99   100    1
    67    22    23    1
    68    23    26    1
    69   100   103    1
    70    20    19    1
    71    76    77    2
    72    83    80    1
    73     8     6   ar
    74    19    18    1
    75    80    79    1
    76    80    81    1
    77     1     2    1
    78   103   104    1
    79     6     7   ar
    80     6     5    1
    81   104   105   ar
    82   104   106   ar
    83   105   107   ar
    84     5     2    1
    85     2     3    1
    86    81    84   am
    87    81    82    2
    88    84    85    1
    89   107   108   ar
    90   106   108   ar
    91    16    15    2
    92     3     4    2
    93    89    90    1
    94    89    88    1
    95    17    15   am
    96    15    14    1
    97    92    90   ar
    98    90    91   ar
    99    85    88    1
   100    85    86    1
   101    14    13    1
   102    13    10    1
   103    86    87    2
   104    10     9    1
   105    10    11    1
   106    11    12    2
