@<TRIPOS>MOLECULE
tmp/2nqgA00.pdb
 176 170 0 0 0
SMALL
GASTEIGER

@<TRIPOS>ATOM
      1  N          2.9180    0.5310  -16.2000 N.3    77  GLN77      -0.1231
      2  CA         3.2590    1.9180  -16.4410 C.3    77  GLN77       0.1698
      3  C          2.0260    2.7560  -16.8650 C.2    77  GLN77       0.2592
      4  O          1.1590    2.2880  -17.5970 O.2    77  GLN77      -0.2718
      5  CB         4.3270    1.9590  -17.5250 C.3    77  GLN77       0.0381
      6  CG         4.6540    3.3610  -18.0460 C.3    77  GLN77       0.0905
      7  CD         5.8810    3.3940  -18.9250 C.2    77  GLN77       0.2608
      8  OE1        6.4720    2.3540  -19.2250 O.2    77  GLN77      -0.2717
      9  NE2        6.2780    4.5870  -19.3430 N.am   77  GLN77      -0.0878
     10  N          1.9680    3.9970  -16.4030 N.am   78  GLY78      -0.1957
     11  CA         0.8930    4.9010  -16.8160 C.3    78  GLY78       0.1869
     12  C          1.4130    5.9290  -17.7900 C.2    78  GLY78       0.2309
     13  O          2.3180    5.6400  -18.5610 O.2    78  GLY78      -0.2863
     14  N          3.4800    8.3250  -18.1860 N.3    80  LEU80      -0.1231
     15  CA         4.6830    8.9970  -17.8270 C.3    80  LEU80       0.1693
     16  C          5.7350    8.1560  -18.4220 C.2    80  LEU80       0.2592
     17  O          5.6160    6.9540  -18.3940 O.2    80  LEU80      -0.2718
     18  CB         4.8720    9.0430  -16.2950 C.3    80  LEU80       0.0284
     19  CG         6.0610    9.7790  -15.6860 C.3    80  LEU80       0.0019
     20  CD1        6.0430   11.2690  -16.1710 C.3    80  LEU80       0.0001
     21  CD2        5.9970    9.6590  -14.1490 C.3    80  LEU80       0.0001
     22  N          6.7650    8.8030  -18.9350 N.am   81  GLY81      -0.1957
     23  CA         7.9210    8.1570  -19.5280 C.3    81  GLY81       0.1869
     24  C          8.9510    7.7430  -18.5090 C.2    81  GLY81       0.2309
     25  O         10.1430    8.0400  -18.6520 O.2    81  GLY81      -0.2863
     26  N          9.6660    4.4780  -17.8080 N.3    83  CYS83      -0.1221
     27  CA         9.8670    3.0470  -18.0760 C.3    83  CYS83       0.1808
     28  C         11.0940    2.4840  -17.3330 C.2    83  CYS83       0.2601
     29  O         11.0350    1.3630  -16.8050 O.2    83  CYS83      -0.2717
     30  CB         9.9800    2.7600  -19.5760 C.3    83  CYS83       0.0970
     31  SG        11.4960    3.4220  -20.3640 S.3    83  CYS83      -0.0800
     32  N         12.1740    3.2630  -17.2890 N.am   84  TRP84      -0.1976
     33  CA        13.4720    2.8710  -16.6820 C.3    84  TRP84       0.1640
     34  C         13.3190    2.6040  -15.2070 C.2    84  TRP84       0.2290
     35  O         13.9210    1.6640  -14.6570 O.2    84  TRP84      -0.2864
     36  CB        14.5200    3.9670  -16.8970 C.3    84  TRP84       0.0576
     37  CG        14.1060    5.3730  -16.3680 C.ar   84  TRP84       0.0006
     38  CD1       13.2920    6.2960  -16.9970 C.ar   84  TRP84       0.0946
     39  CD2       14.5080    5.9860  -15.1280 C.ar   84  TRP84       0.0152
     40  NE1       13.1700    7.4290  -16.2150 N.ar   84  TRP84      -0.2442
     41  CE2       13.9200    7.2710  -15.0780 C.ar   84  TRP84       0.0810
     42  CE3       15.3140    5.5770  -14.0570 C.ar   84  TRP84       0.0012
     43  CZ2       14.0760    8.1190  -13.9810 C.ar   84  TRP84       0.0191
     44  CZ3       15.4960    6.4580  -12.9780 C.ar   84  TRP84       0.0001
     45  CH2       14.8720    7.7010  -12.9550 C.ar   84  TRP84       0.0015
     46  N         10.7460   11.7040  -16.4460 N.3   174  SER174     -0.1202
     47  CA        10.5230   11.4350  -17.8820 C.3   174  SER174      0.2020
     48  C         11.8760   11.3050  -18.5520 C.2   174  SER174      0.2619
     49  O         12.6340   12.2550  -18.5510 O.2   174  SER174     -0.2717
     50  CB         9.6910   12.5690  -18.4910 C.3   174  SER174      0.2103
     51  OG         8.9610   12.1330  -19.6150 O.3   174  SER174     -0.2182
     52  N         12.2050   10.1120  -19.0580 N.am  175  GLY175     -0.1942
     53  CA        13.5080    9.8480  -19.6880 C.3   175  GLY175      0.2014
     54  C         14.6230    9.5690  -18.6880 C.2   175  GLY175      0.2639
     55  O         15.0110   10.4310  -17.9450 O.2   175  GLY175     -0.2714
     56  N         15.1810    8.3710  -18.6820 N.am  176  GLY176     -0.1939
     57  CA        16.2350    8.0780  -17.7190 C.3   176  GLY176      0.2014
     58  C         16.9390    6.8100  -18.0900 C.2   176  GLY176      0.2639
     59  O         16.7060    6.2370  -19.1500 O.2   176  GLY176     -0.2714
     60  N         17.8070    6.3470  -17.2220 N.am  177  CYS177     -0.1953
     61  CA        18.4690    5.1010  -17.5030 C.3   177  CYS177      0.1843
     62  C         18.1900    4.0910  -16.3890 C.2   177  CYS177      0.2626
     63  O         18.2270    4.4490  -15.1900 O.2   177  CYS177     -0.2714
     64  CB        19.9410    5.3900  -17.7820 C.3   177  CYS177      0.0997
     65  SG        21.1570    4.6540  -16.7740 S.3   177  CYS177     -0.0797
     66  N         17.8580    2.8600  -16.7960 N.am  178  THR178     -0.1950
     67  CA        17.5430    1.7840  -15.8650 C.3   178  THR178      0.1897
     68  C         18.5700    1.6150  -14.7350 C.2   178  THR178      0.2313
     69  O         18.1760    1.4540  -13.5800 O.2   178  THR178     -0.2863
     70  CB        17.2730    0.4600  -16.5880 C.3   178  THR178      0.1794
     71  OG1       16.3870    0.7120  -17.7090 O.3   178  THR178     -0.2208
     72  CG2       16.6170   -0.5360  -15.6330 C.3   178  THR178      0.0378
     73  N         20.3080    3.7290  -13.2000 N.3   180  GLU180     -0.1245
     74  CA        20.1870    4.7620  -12.2010 C.3   180  GLU180      0.1567
     75  C         19.1890    4.3470  -11.0890 C.2   180  GLU180      0.2260
     76  O         19.5310    4.3770   -9.9130 O.2   180  GLU180     -0.2867
     77  CB        19.8600    6.1380  -12.8120 C.3   180  GLU180      0.0388
     78  CG        19.9550    7.2360  -11.7410 C.3   180  GLU180      0.1160
     79  CD        19.5910    8.6460  -12.2250 C.2   180  GLU180      0.3649
     80  OE1       19.9220    8.9840  -13.3830 O.co2 180  GLU180     -0.2457
     81  OE2       18.9960    9.4050  -11.4270 O.co2 180  GLU180     -0.2457
     82  N         17.1110   -3.0960  -23.4620 N.3   219  SER219     -0.1202
     83  CA        16.4950   -2.0620  -24.2930 C.3   219  SER219      0.2020
     84  C         17.0460   -2.0870  -25.7310 C.2   219  SER219      0.2619
     85  O         18.1210   -2.6080  -25.9840 O.2   219  SER219     -0.2717
     86  CB        16.7610   -0.6980  -23.6650 C.3   219  SER219      0.2103
     87  OG        18.1580   -0.5450  -23.5320 O.3   219  SER219     -0.2182
     88  N         16.2790   -1.5060  -26.6580 N.am  220  ILE220     -0.1965
     89  CA        16.6210   -1.4210  -28.0640 C.3   220  ILE220      0.1727
     90  C         16.8740    0.0720  -28.3610 C.2   220  ILE220      0.2616
     91  O         15.9790    0.9290  -28.2280 O.2   220  ILE220     -0.2715
     92  CB        15.4660   -1.9850  -28.9860 C.3   220  ILE220      0.0290
     93  CG1       14.9710   -3.3260  -28.4900 C.3   220  ILE220      0.0022
     94  CG2       15.9130   -2.1310  -30.4530 C.3   220  ILE220      0.0023
     95  CD1       13.7520   -3.7920  -29.1710 C.3   220  ILE220      0.0001
     96  N         18.1000    0.3920  -28.7210 N.am  221  ASN221     -0.1958
     97  CA        18.4170    1.7420  -29.1300 C.3   221  ASN221      0.1819
     98  C         17.5770    2.1520  -30.3570 C.2   221  ASN221      0.2621
     99  O         17.3850    1.3420  -31.2700 O.2   221  ASN221     -0.2715
    100  CB        19.9050    1.8450  -29.4480 C.3   221  ASN221      0.1195
    101  CG        20.3770    3.2660  -29.5320 C.2   221  ASN221      0.2630
    102  OD1       19.7950    4.1660  -28.9200 O.2   221  ASN221     -0.2716
    103  ND2       21.4430    3.4900  -30.3030 N.am  221  ASN221     -0.0877
    104  N         17.0450    3.3750  -30.3640 N.am  222  ILE222     -0.1977
    105  CA        16.4900    3.9260  -31.6110 C.3   222  ILE222      0.1596
    106  C         17.6510    4.6060  -32.3380 C.2   222  ILE222      0.2287
    107  O         18.0770    5.7020  -31.9640 O.2   222  ILE222     -0.2864
    108  CB        15.2780    4.8520  -31.3870 C.3   222  ILE222      0.0276
    109  CG1       14.1190    4.0590  -30.7550 C.3   222  ILE222      0.0022
    110  CG2       14.8050    5.4160  -32.7080 C.3   222  ILE222      0.0022
    111  CD1       12.9310    4.8880  -30.1710 C.3   222  ILE222      0.0001
    112  N          9.1960   -2.7930  -28.2790 N.3   237  VAL237     -0.1245
    113  CA         9.1790   -1.3150  -28.1990 C.3   237  VAL237      0.1561
    114  C         10.6020   -0.7710  -28.0890 C.2   237  VAL237      0.2260
    115  O         11.3240   -1.1470  -27.1940 O.2   237  VAL237     -0.2867
    116  CB         8.3260   -0.8060  -26.9690 C.3   237  VAL237      0.0252
    117  CG1        8.1660    0.7610  -26.9800 C.3   237  VAL237      0.0019
    118  CG2        6.9890   -1.5150  -26.9590 C.3   237  VAL237      0.0019
    119  N         13.6240    2.0890  -27.4520 N.3   239  GLY239     -0.1210
    120  CA        13.8750    3.1820  -26.4960 C.3   239  GLY239      0.1956
    121  C         13.0150    3.0090  -25.2620 C.2   239  GLY239      0.2612
    122  O         12.4760    3.9600  -24.7350 O.2   239  GLY239     -0.2717
    123  N         12.8820    1.7590  -24.8160 N.am  240  HIS240     -0.1961
    124  CA        11.9550    1.3590  -23.7660 C.3   240  HIS240      0.1787
    125  C         12.6490    0.2870  -22.9230 C.2   240  HIS240      0.2620
    126  O         13.1050   -0.7390  -23.4390 O.2   240  HIS240     -0.2715
    127  CB        10.6880    0.8090  -24.4290 C.3   240  HIS240      0.0785
    128  CG         9.5890    0.4520  -23.4840 C.ar  240  HIS240      0.0821
    129  ND1        8.9980    1.3760  -22.6470 N.ar  240  HIS240     -0.2267
    130  CD2        8.9800   -0.7340  -23.2290 C.ar  240  HIS240      0.1154
    131  CE1        8.0660    0.7840  -21.9270 C.ar  240  HIS240      0.1986
    132  NE2        8.0250   -0.4940  -22.2680 N.ar  240  HIS240     -0.2212
    133  N         12.7220    0.5490  -21.6180 N.am  241  ALA241     -0.1977
    134  CA        13.3340   -0.3640  -20.6840 C.3   241  ALA241      0.1597
    135  C         12.4430   -1.5580  -20.4580 C.2   241  ALA241      0.2287
    136  O         11.2560   -1.3870  -20.1760 O.2   241  ALA241     -0.2864
    137  CB        13.5820    0.3710  -19.3490 C.3   241  ALA241      0.0319
    138  N          4.9540   -1.7700  -19.3000 N.3   266  TRP266     -0.1241
    139  CA         3.5230   -1.6510  -19.6350 C.3   266  TRP266      0.1605
    140  C          2.6110   -2.7280  -19.0580 C.2   266  TRP266      0.2264
    141  O          1.4590   -2.4640  -18.8500 O.2   266  TRP266     -0.2867
    142  CB         3.2860   -1.6070  -21.1430 C.3   266  TRP266      0.0550
    143  CG         3.8610   -0.4210  -21.8460 C.ar  266  TRP266      0.0003
    144  CD1        4.4680    0.6620  -21.2720 C.ar  266  TRP266      0.0946
    145  CD2        3.8650   -0.1700  -23.2760 C.ar  266  TRP266      0.0152
    146  NE1        4.8720    1.5540  -22.2430 N.ar  266  TRP266     -0.2442
    147  CE2        4.5060    1.0710  -23.4790 C.ar  266  TRP266      0.0810
    148  CE3        3.3890   -0.8770  -24.3930 C.ar  266  TRP266      0.0012
    149  CZ2        4.6910    1.6370  -24.7750 C.ar  266  TRP266      0.0191
    150  CZ3        3.5780   -0.3100  -25.6940 C.ar  266  TRP266      0.0001
    151  CH2        4.2100    0.9280  -25.8610 C.ar  266  TRP266      0.0015
    152  N         19.7970   -4.1430  -28.0060 N.3   314  THR314     -0.1203
    153  CA        21.1390   -3.5880  -28.2420 C.3   314  THR314      0.1994
    154  C         21.9220   -3.4250  -26.9390 C.2   314  THR314      0.2617
    155  O         23.1550   -3.4230  -26.9450 O.2   314  THR314     -0.2717
    156  CB        21.0680   -2.2660  -29.0180 C.3   314  THR314      0.1784
    157  OG1       20.4010   -1.2750  -28.2100 O.3   314  THR314     -0.2211
    158  CG2       20.2760   -2.4870  -30.3780 C.3   314  THR314      0.0376
    159  N         21.2000   -3.3740  -25.8110 N.am  315  LYS315     -0.1979
    160  CA        21.8390   -3.1110  -24.5290 C.3   315  LYS315      0.1596
    161  C         21.2620   -3.9470  -23.4090 C.2   315  LYS315      0.2287
    162  O         20.0640   -4.0400  -23.2740 O.2   315  LYS315     -0.2864
    163  CB        21.7200   -1.6200  -24.1920 C.3   315  LYS315      0.0298
    164  CG        22.4350   -1.1340  -22.9350 C.3   315  LYS315      0.0038
    165  CD        22.1510    0.3770  -22.8180 C.3   315  LYS315      0.0206
    166  CE        23.1530    1.0400  -21.9670 C.3   315  LYS315      0.1093
    167  NZ        22.6900    2.4080  -21.7780 N.3   315  LYS315     -0.1314
    168  N         21.7990   -4.1790  -19.1380 N.3   317  GLU317     -0.1245
    169  CA        22.3080   -3.6170  -17.8640 C.3   317  GLU317      0.1567
    170  C         22.1420   -4.5870  -16.6880 C.2   317  GLU317      0.2260
    171  O         21.0590   -5.1840  -16.4870 O.2   317  GLU317     -0.2867
    172  CB        21.5630   -2.3060  -17.5480 C.3   317  GLU317      0.0388
    173  CG        21.6470   -1.3400  -18.6990 C.3   317  GLU317      0.1160
    174  CD        20.8440   -0.0810  -18.5200 C.2   317  GLU317      0.3649
    175  OE1       19.9920    0.2310  -19.3880 O.co2 317  GLU317     -0.2457
    176  OE2       21.1030    0.6340  -17.5470 O.co2 317  GLU317     -0.2457
@<TRIPOS>BOND
     1   110   108    1
     2   106   107    2
     3   106   105    1
     4   105   108    1
     5   105   104    1
     6   108   109    1
     7    99    98    2
     8   109   111    1
     9    94    92    1
    10   158   156    1
    11   104    98   am
    12    98    97    1
    13   103   101   am
    14   101   100    1
    15   101   102    2
    16   100    97    1
    17    95    93    1
    18    97    96    1
    19   156   153    1
    20   156   157    1
    21    92    93    1
    22    92    89    1
    23    96    90   am
    24    90    91    2
    25    90    89    1
    26   112   113    1
    27   153   152    1
    28   153   154    1
    29   113   114    1
    30   113   116    1
    31   114   115    2
    32    89    88    1
    33   119   120    1
    34   117   116    1
    35   116   118    1
    36   155   154    2
    37   154   159   am
    38    88    84   am
    39   120   121    1
    40    85    84    2
    41   151   150   ar
    42   151   149   ar
    43   159   160    1
    44    84    83    1
    45   150   148   ar
    46   121   123   am
    47   121   122    2
    48   123   124    1
    49   149   147   ar
    50   160   163    1
    51   160   161    1
    52   127   124    1
    53   127   128    1
    54   148   145   ar
    55    83    86    1
    56    83    82    1
    57   163   164    1
    58   124   125    1
    59    86    87    1
    60   128   130   ar
    61   128   129   ar
    62   147   145   ar
    63   147   146   ar
    64   126   125    2
    65   161   162    2
    66   145   143   ar
    67   130   132   ar
    68   164   165    1
    69   125   133   am
    70   165   166    1
    71   129   131   ar
    72   132   131   ar
    73   146   144   ar
    74   166   167    1
    75   143   144   ar
    76   143   142    1
    77   133   134    1
    78   142   139    1
    79   134   135    1
    80   134   137    1
    81   135   136    2
    82    31    30    1
    83    53    52    1
    84    53    54    1
    85   139   138    1
    86   139   140    1
    87    51    50    1
    88    30    27    1
    89    23    22    1
    90    23    24    1
    91   175   174   ar
    92     9     7   am
    93     8     7    2
    94    59    58    2
    95   168   169    1
    96    52    48   am
    97   140   141    2
    98    22    16   am
    99     7     6    1
   100   173   174    1
   101   173   172    1
   102    54    56   am
   103    54    55    2
   104    56    57    1
   105    25    24    2
   106    13    12    2
   107    48    49    2
   108    48    47    1
   109   174   176   ar
   110    50    47    1
   111    16    17    2
   112    16    15    1
   113    14    15    1
   114    58    57    1
   115    58    60   am
   116    27    26    1
   117    27    28    1
   118     6     5    1
   119    47    46    1
   120   169   172    1
   121   169   170    1
   122    15    18    1
   123    12    11    1
   124    64    61    1
   125    64    65    1
   126    71    70    1
   127     4     3    2
   128     5     2    1
   129    61    60    1
   130    61    62    1
   131    28    32   am
   132    28    29    2
   133    32    33    1
   134    38    37   ar
   135    38    40   ar
   136    36    33    1
   137    36    37    1
   138     3     2    1
   139     3    10   am
   140    11    10    1
   141    66    62   am
   142    66    67    1
   143   170   171    2
   144    33    34    1
   145    70    67    1
   146    70    72    1
   147     2     1    1
   148    62    63    2
   149    37    39   ar
   150    18    19    1
   151    40    41   ar
   152    20    19    1
   153    67    68    1
   154    19    21    1
   155    34    35    2
   156    39    41   ar
   157    39    42   ar
   158    41    43   ar
   159    68    69    2
   160    42    44   ar
   161    43    45   ar
   162    80    79   ar
   163    73    74    1
   164    44    45   ar
   165    77    74    1
   166    77    78    1
   167    79    78    1
   168    79    81   ar
   169    74    75    1
   170    75    76    2
