@<TRIPOS>MOLECULE
tmp/2nqlA00.pdb
 95 93 0 0 0
SMALL
GASTEIGER

@<TRIPOS>ATOM
      1  N         26.4340   73.0670   15.2660 N.3   154  PRO154     -0.2102
      2  CA        25.1690   72.6870   14.6510 C.3   154  PRO154      0.1504
      3  C         25.1830   71.3660   13.8920 C.2   154  PRO154      0.2576
      4  O         26.2080   70.9740   13.3290 O.2   154  PRO154     -0.2718
      5  CB        24.9100   73.8550   13.6830 C.3   154  PRO154      0.0282
      6  CG        25.5770   74.9980   14.3400 C.3   154  PRO154      0.0208
      7  CD        26.8610   74.3920   14.7690 C.3   154  PRO154      0.0893
      8  N         24.0350   70.7020   13.8950 N.am  155  ALA155     -0.1966
      9  CA        23.8340   69.4570   13.1720 C.3   155  ALA155      0.1728
     10  C         22.6000   69.5990   12.2890 C.2   155  ALA155      0.2616
     11  O         21.5940   70.1760   12.7190 O.2   155  ALA155     -0.2715
     12  CB        23.6660   68.3170   14.1630 C.3   155  ALA155      0.0334
     13  N         22.6790   69.1230   11.0460 N.am  156  TYR156     -0.1974
     14  CA        21.5050   69.0930   10.1760 C.3   156  TYR156      0.1639
     15  C         21.0030   67.6900    9.9560 C.2   156  TYR156      0.2290
     16  O         21.7930   66.7370    9.8780 O.2   156  TYR156     -0.2864
     17  CB        21.7320   69.8270    8.8510 C.3   156  TYR156      0.0560
     18  CG        22.5720   69.1280    7.8020 C.ar  156  TYR156     -0.0198
     19  CD1       21.9860   68.2260    6.8890 C.ar  156  TYR156     -0.0009
     20  CD2       23.9460   69.3650    7.7060 C.ar  156  TYR156     -0.0009
     21  CE1       22.7440   67.6030    5.9170 C.ar  156  TYR156      0.0417
     22  CE2       24.7220   68.7410    6.7050 C.ar  156  TYR156      0.0417
     23  CZ        24.1160   67.8650    5.8310 C.ar  156  TYR156      0.1957
     24  OH        24.8500   67.2350    4.8560 O.3   156  TYR156     -0.2866
     25  N         16.9160   72.8340   12.7240 N.3   181  ASN181     -0.1225
     26  CA        16.5130   73.9190   11.8440 C.3   181  ASN181      0.1785
     27  C         17.0490   73.7550   10.4260 C.2   181  ASN181      0.2597
     28  O         16.7630   74.5660    9.5400 O.2   181  ASN181     -0.2718
     29  CB        16.9810   75.2570   12.4270 C.3   181  ASN181      0.1169
     30  CG        16.3100   75.5870   13.7480 C.2   181  ASN181      0.2627
     31  OD1       16.9810   75.8340   14.7530 O.2   181  ASN181     -0.2716
     32  ND2       14.9810   75.5960   13.7530 N.am  181  ASN181     -0.0877
     33  N         17.8410   72.7060   10.2220 N.am  182  ALA182     -0.1979
     34  CA        18.5010   72.4790    8.9530 C.3   182  ALA182      0.1597
     35  C         18.3390   71.0170    8.5220 C.2   182  ALA182      0.2287
     36  O         18.3710   70.1020    9.3570 O.2   182  ALA182     -0.2864
     37  CB        19.9680   72.9140    9.0350 C.3   182  ALA182      0.0319
     38  N         16.4830   75.6820    6.9320 N.3   210  LYS210     -0.1245
     39  CA        17.4690   75.4650    5.8490 C.3   210  LYS210      0.1561
     40  C         17.1830   74.1110    5.2160 C.2   210  LYS210      0.2260
     41  O         17.0460   73.1110    5.9240 O.2   210  LYS210     -0.2867
     42  CB        18.9060   75.4790    6.3940 C.3   210  LYS210      0.0271
     43  CG        19.3800   76.8130    6.9410 C.3   210  LYS210      0.0035
     44  CD        20.8830   76.9410    6.8380 C.3   210  LYS210      0.0206
     45  CE        21.4940   77.4460    8.1090 C.3   210  LYS210      0.1093
     46  NZ        21.2880   78.9030    8.2640 N.3   210  LYS210     -0.1314
     47  N         19.1920   75.7380    0.4290 N.3   237  TRP237     -0.1241
     48  CA        20.3730   76.0580    1.2190 C.3   237  TRP237      0.1605
     49  C         21.6430   75.8130    0.4070 C.2   237  TRP237      0.2264
     50  O         22.4780   76.7120    0.2730 O.2   237  TRP237     -0.2867
     51  CB        20.3250   75.1890    2.4870 C.3   237  TRP237      0.0550
     52  CG        21.4890   75.1950    3.4260 C.ar  237  TRP237      0.0003
     53  CD1       22.4710   76.1330    3.5570 C.ar  237  TRP237      0.0946
     54  CD2       21.7460   74.1990    4.4100 C.ar  237  TRP237      0.0152
     55  NE1       23.3450   75.7680    4.5610 N.ar  237  TRP237     -0.2442
     56  CE2       22.9170   74.5840    5.1020 C.ar  237  TRP237      0.0810
     57  CE3       21.1000   72.9980    4.7680 C.ar  237  TRP237      0.0012
     58  CZ2       23.4720   73.8070    6.1160 C.ar  237  TRP237      0.0191
     59  CZ3       21.6420   72.2260    5.7920 C.ar  237  TRP237      0.0001
     60  CH2       22.8120   72.6470    6.4670 C.ar  237  TRP237      0.0015
     61  N         31.1020   71.7910    5.9430 N.3   313  ILE313     -0.1245
     62  CA        29.9520   71.0840    6.5280 C.3   313  ILE313      0.1561
     63  C         30.1350   69.5780    6.2700 C.2   313  ILE313      0.2260
     64  O         29.7060   69.0770    5.2230 O.2   313  ILE313     -0.2867
     65  CB        28.6020   71.6140    5.9590 C.3   313  ILE313      0.0252
     66  CG1       28.5040   73.1460    6.1080 C.3   313  ILE313      0.0019
     67  CG2       27.4150   70.9470    6.6500 C.3   313  ILE313      0.0019
     68  CD1       27.3000   73.7550    5.4520 C.3   313  ILE313      0.0001
     69  N         30.5820   75.3210    9.6460 N.3   338  LYS338     -0.1231
     70  CA        29.2250   75.8200    9.8450 C.3   338  LYS338      0.1693
     71  C         28.3180   74.8470   10.5970 C.2   338  LYS338      0.2593
     72  O         27.3490   75.2540   11.2320 O.2   338  LYS338     -0.2718
     73  CB        28.6100   76.2630    8.5250 C.3   338  LYS338      0.0285
     74  CG        29.3680   77.4330    7.8790 C.3   338  LYS338      0.0035
     75  CD        29.2100   78.7180    8.7050 C.3   338  LYS338      0.0206
     76  CE        29.8680   79.9160    8.0520 C.3   338  LYS338      0.1093
     77  NZ        31.3660   79.8940    8.2250 N.3   338  LYS338     -0.1314
     78  N         28.6550   73.5650   10.5270 N.am  339  GLY339     -0.1942
     79  CA        27.9090   72.4990   11.1930 C.3   339  GLY339      0.2014
     80  C         28.2430   71.1810   10.5040 C.2   339  GLY339      0.2638
     81  O         29.2730   71.0770    9.8210 O.2   339  GLY339     -0.2714
     82  N         27.3880   70.1840   10.6640 N.am  340  HIS340     -0.1973
     83  CA        27.7770   68.7820   10.4090 C.3   340  HIS340      0.1656
     84  C         26.5410   67.9390   10.1080 C.2   340  HIS340      0.2291
     85  O         25.4780   68.0920   10.7350 O.2   340  HIS340     -0.2864
     86  CB        28.5490   68.2660   11.6300 C.3   340  HIS340      0.0771
     87  CG        29.4130   67.0600   11.3800 C.ar  340  HIS340      0.0820
     88  ND1       28.9050   65.8280   11.0120 N.ar  340  HIS340     -0.2267
     89  CD2       30.7570   66.8910   11.5150 C.ar  340  HIS340      0.1154
     90  CE1       29.8980   64.9550   10.9220 C.ar  340  HIS340      0.1986
     91  NE2       31.0340   65.5770   11.2110 N.ar  340  HIS340     -0.2212
     92  N         19.3750   69.9590   17.6160 N.3   363  GLY363     -0.1225
     93  CA        20.0920   70.5620   16.5220 C.3   363  GLY363      0.1811
     94  C         21.5810   70.7650   16.7030 C.2   363  GLY363      0.2280
     95  O         22.1820   71.5190   15.9280 O.2   363  GLY363     -0.2866
@<TRIPOS>BOND
     1    50    49    2
     2    49    48    1
     3    47    48    1
     4    48    51    1
     5    51    52    1
     6    52    53   ar
     7    52    54   ar
     8    53    55   ar
     9    54    57   ar
    10    54    56   ar
    11    55    56   ar
    12    57    59   ar
    13    24    23    1
    14    56    58   ar
    15    40    39    1
    16    40    41    2
    17    64    63    2
    18    68    66    1
    19    59    60   ar
    20    23    21   ar
    21    23    22   ar
    22    39    42    1
    23    39    38    1
    24    21    19   ar
    25    61    62    1
    26    65    66    1
    27    65    62    1
    28    65    67    1
    29    58    60   ar
    30    63    62    1
    31    42    43    1
    32    22    20   ar
    33    44    43    1
    34    44    45    1
    35    19    18   ar
    36    20    18   ar
    37    18    17    1
    38    74    73    1
    39    74    75    1
    40    76    77    1
    41    76    75    1
    42    45    46    1
    43    35    34    1
    44    35    36    2
    45    73    70    1
    46    17    14    1
    47    34    37    1
    48    34    33    1
    49    28    27    2
    50    69    70    1
    51    81    80    2
    52    70    71    1
    53    16    15    2
    54    15    14    1
    55    84    83    1
    56    84    85    2
    57    14    13    1
    58    33    27   am
    59    83    82    1
    60    83    86    1
    61    27    26    1
    62    80    82   am
    63    80    79    1
    64    78    71   am
    65    78    79    1
    66    71    72    2
    67    90    88   ar
    68    90    91   ar
    69    88    87   ar
    70    13    10   am
    71    91    89   ar
    72    87    89   ar
    73    87    86    1
    74    26    29    1
    75    26    25    1
    76    10    11    2
    77    10     9    1
    78    29    30    1
    79     9     8    1
    80     9    12    1
    81     4     3    2
    82     5     6    1
    83     5     2    1
    84    30    32   am
    85    30    31    2
    86     3     8   am
    87     3     2    1
    88     6     7    1
    89     2     1    1
    90     7     1    1
    91    95    94    2
    92    93    94    1
    93    93    92    1
