@<TRIPOS>MOLECULE
tmp/2nqyB00.pdb
 170 164 0 0 0
SMALL
GASTEIGER

@<TRIPOS>ATOM
      1  N         34.3230   18.1770   22.0650 N.3    17  GLU17      -0.1245
      2  CA        35.1370   17.1460   21.4920 C.3    17  GLU17       0.1567
      3  C         35.4470   17.4600   20.0380 C.2    17  GLU17       0.2260
      4  O         34.5870   17.9420   19.2980 O.2    17  GLU17      -0.2867
      5  CB        34.4860   15.7660   21.6680 C.3    17  GLU17       0.0388
      6  CG        35.1550   14.6560   20.8510 C.3    17  GLU17       0.1160
      7  CD        34.7840   13.2490   21.2840 C.2    17  GLU17       0.3649
      8  OE1       33.8710   13.0760   22.1440 O.co2  17  GLU17      -0.2457
      9  OE2       35.4300   12.3020   20.7560 O.co2  17  GLU17      -0.2457
     10  N         36.7900   15.2170   16.8900 N.3    19  TRP19      -0.1241
     11  CA        37.0890   13.8510   16.4690 C.3    19  TRP19       0.1605
     12  C         37.1340   13.7410   14.9540 C.2    19  TRP19       0.2264
     13  O         36.1860   14.1120   14.2690 O.2    19  TRP19      -0.2867
     14  CB        36.0760   12.8200   17.0230 C.3    19  TRP19       0.0550
     15  CG        36.4810   11.4260   16.6660 C.ar   19  TRP19       0.0003
     16  CD1       37.2710   10.5930   17.4090 C.ar   19  TRP19       0.0946
     17  CD2       36.2020   10.7240   15.4460 C.ar   19  TRP19       0.0152
     18  NE1       37.4810    9.4130   16.7390 N.ar   19  TRP19      -0.2442
     19  CE2       36.8320    9.4610   15.5370 C.ar   19  TRP19       0.0810
     20  CE3       35.4590   11.0290   14.2920 C.ar   19  TRP19       0.0012
     21  CZ2       36.7500    8.4990   14.5190 C.ar   19  TRP19       0.0191
     22  CZ3       35.3810   10.0730   13.2720 C.ar   19  TRP19       0.0001
     23  CH2       36.0280    8.8220   13.3950 C.ar   19  TRP19       0.0015
     24  N         35.9190   11.4900    7.8200 N.3    45  ASN45      -0.1240
     25  CA        34.9480   11.8740    8.8390 C.3    45  ASN45       0.1653
     26  C         35.5240   12.8410    9.8680 C.2    45  ASN45       0.2266
     27  O         36.6420   12.6610   10.3520 O.2    45  ASN45      -0.2867
     28  CB        34.4430   10.6440    9.5820 C.3    45  ASN45       0.1155
     29  CG        33.6790    9.7200    8.6980 C.2    45  ASN45       0.2627
     30  OD1       34.2120    8.6930    8.2560 O.2    45  ASN45      -0.2716
     31  ND2       32.4220   10.0700    8.4110 N.am   45  ASN45      -0.0877
     32  N         34.0170   15.4700   13.2940 N.3    47  LEU47      -0.1245
     33  CA        32.9470   15.9640   14.1410 C.3    47  LEU47       0.1561
     34  C         33.4990   17.0450   15.0380 C.2    47  LEU47       0.2260
     35  O         34.5980   16.9030   15.5890 O.2    47  LEU47      -0.2867
     36  CB        32.3320   14.8380   14.9980 C.3    47  LEU47       0.0270
     37  CG        31.3070   13.8860   14.3640 C.3    47  LEU47       0.0019
     38  CD1       31.9500   12.7810   13.5210 C.3    47  LEU47       0.0001
     39  CD2       30.4830   13.2530   15.4460 C.3    47  LEU47       0.0001
     40  N         32.0030   19.4060   18.3200 N.3    49  ARG49      -0.1245
     41  CA        30.8520   19.5800   19.2140 C.3    49  ARG49       0.1563
     42  C         31.1560   20.1560   20.5880 C.2    49  ARG49       0.2260
     43  O         32.2750   20.0530   21.0960 O.2    49  ARG49      -0.2867
     44  CB        30.0610   18.2750   19.3380 C.3    49  ARG49       0.0307
     45  CG        30.7760   17.1860   20.0710 C.3    49  ARG49       0.0489
     46  CD        30.6930   15.8910   19.3920 C.3    49  ARG49       0.2205
     47  NE        30.6760   14.7130   20.2500 N.pl3  49  ARG49      -0.0865
     48  CZ        31.3460   13.5970   19.9630 C.cat  49  ARG49       0.5346
     49  NH1       32.1340   13.5470   18.8840 N.pl3  49  ARG49       0.1354
     50  NH2       31.2440   12.5420   20.7520 N.pl3  49  ARG49       0.1354
     51  N         23.8010   15.8600   18.4960 N.3    85  TYR85      -0.1241
     52  CA        24.3900   14.5540   18.3480 C.3    85  TYR85       0.1605
     53  C         24.6700   13.9610   19.7290 C.2    85  TYR85       0.2264
     54  O         24.8380   14.6880   20.7190 O.2    85  TYR85      -0.2867
     55  CB        25.6740   14.7030   17.5150 C.3    85  TYR85       0.0534
     56  CG        26.5470   13.4670   17.3760 C.ar   85  TYR85      -0.0201
     57  CD1       27.6060   13.2400   18.2560 C.ar   85  TYR85      -0.0009
     58  CD2       26.3430   12.5480   16.3380 C.ar   85  TYR85      -0.0009
     59  CE1       28.4020   12.1240   18.1450 C.ar   85  TYR85       0.0417
     60  CE2       27.1620   11.4250   16.2090 C.ar   85  TYR85       0.0417
     61  CZ        28.1870   11.2190   17.1270 C.ar   85  TYR85       0.1957
     62  OH        29.0150   10.1040   17.0200 O.3    85  TYR85      -0.2866
     63  N         25.1300    9.8970   22.1890 N.3    87  TRP87      -0.1241
     64  CA        25.0970    8.4460   22.3540 C.3    87  TRP87       0.1605
     65  C         24.3230    8.0650   23.5940 C.2    87  TRP87       0.2264
     66  O         24.1870    8.8630   24.5400 O.2    87  TRP87      -0.2867
     67  CB        26.5200    7.8720   22.5080 C.3    87  TRP87       0.0550
     68  CG        27.3690    7.9330   21.2710 C.ar   87  TRP87       0.0003
     69  CD1       28.0170    9.0340   20.7720 C.ar   87  TRP87       0.0946
     70  CD2       27.6980    6.8440   20.3950 C.ar   87  TRP87       0.0152
     71  NE1       28.7050    8.7000   19.6170 N.ar   87  TRP87      -0.2442
     72  CE2       28.5350    7.3640   19.3700 C.ar   87  TRP87       0.0810
     73  CE3       27.3380    5.4870   20.3490 C.ar   87  TRP87       0.0012
     74  CZ2       29.0390    6.5630   18.3240 C.ar   87  TRP87       0.0191
     75  CZ3       27.8390    4.6900   19.3090 C.ar   87  TRP87       0.0001
     76  CH2       28.6870    5.2280   18.3200 C.ar   87  TRP87       0.0015
     77  N         23.9920    5.6040   18.5410 N.3    94  GLU94      -0.1245
     78  CA        24.4190    6.9110   18.0870 C.3    94  GLU94       0.1567
     79  C         23.1950    7.6460   17.5250 C.2    94  GLU94       0.2260
     80  O         22.4930    7.1290   16.6500 O.2    94  GLU94      -0.2867
     81  CB        25.5090    6.7470   17.0310 C.3    94  GLU94       0.0388
     82  CG        26.0570    8.0650   16.4630 C.3    94  GLU94       0.1160
     83  CD        27.0880    7.8160   15.3730 C.2    94  GLU94       0.3649
     84  OE1       26.7870    7.0720   14.4110 O.co2  94  GLU94      -0.2457
     85  OE2       28.2080    8.3460   15.4880 O.co2  94  GLU94      -0.2457
     86  N         20.9880   11.3870   16.1580 N.3    96  TYR96      -0.1241
     87  CA        21.0630   12.6340   15.3840 C.3    96  TYR96       0.1605
     88  C         19.7270   13.3270   15.3660 C.2    96  TYR96       0.2264
     89  O         18.7040   12.6800   15.1120 O.2    96  TYR96      -0.2867
     90  CB        21.3770   12.3390   13.9130 C.3    96  TYR96       0.0534
     91  CG        22.7750   11.8950   13.6140 C.ar   96  TYR96      -0.0201
     92  CD1       23.1170   10.5530   13.6240 C.ar   96  TYR96      -0.0009
     93  CD2       23.7470   12.8250   13.2730 C.ar   96  TYR96      -0.0009
     94  CE1       24.4240   10.1430   13.3390 C.ar   96  TYR96       0.0417
     95  CE2       25.0440   12.4400   12.9840 C.ar   96  TYR96       0.0417
     96  CZ        25.3740   11.1020   13.0180 C.ar   96  TYR96       0.1957
     97  OH        26.6610   10.7240   12.7290 O.3    96  TYR96      -0.2866
     98  N         24.8510    0.1960   12.1170 N.3   129  ARG129     -0.1245
     99  CA        26.2830    0.2410   11.8740 C.3   129  ARG129      0.1563
    100  C         26.8650   -1.0510   12.3960 C.2   129  ARG129      0.2260
    101  O         26.6630   -1.3710   13.5630 O.2   129  ARG129     -0.2867
    102  CB        26.9140    1.4490   12.5670 C.3   129  ARG129      0.0307
    103  CG        26.3680    2.7950   12.0670 C.3   129  ARG129      0.0489
    104  CD        27.0270    3.2400   10.7640 C.3   129  ARG129      0.2205
    105  NE        28.4050    3.6480   11.0110 N.pl3 129  ARG129     -0.0865
    106  CZ        29.3290    3.8570   10.0750 C.cat 129  ARG129      0.5346
    107  NH1       29.0360    3.6980    8.7890 N.pl3 129  ARG129      0.1354
    108  NH2       30.5540    4.2310   10.4310 N.pl3 129  ARG129      0.1354
    109  N         33.6720    2.0940   14.0540 N.3   133  PRO133     -0.2102
    110  CA        34.1240    2.9330   15.1610 C.3   133  PRO133      0.1504
    111  C         32.9700    3.4570   16.0320 C.2   133  PRO133      0.2576
    112  O         31.8960    3.8200   15.5370 O.2   133  PRO133     -0.2718
    113  CB        34.8360    4.0890   14.4470 C.3   133  PRO133      0.0282
    114  CG        35.3020    3.4700   13.1260 C.3   133  PRO133      0.0208
    115  CD        34.2110    2.5450   12.7500 C.3   133  PRO133      0.0893
    116  N         33.1990    3.4690   17.3380 N.am  134  SER134     -0.1938
    117  CA        32.1900    3.9180   18.2880 C.3   134  SER134      0.2055
    118  C         32.8890    4.4040   19.5520 C.2   134  SER134      0.2642
    119  O         34.1110    4.2760   19.6910 O.2   134  SER134     -0.2714
    120  CB        31.1650    2.8040   18.5910 C.3   134  SER134      0.2130
    121  OG        31.6120    1.9440   19.6010 O.3   134  SER134     -0.2179
    122  N         32.1130    4.9900   20.4540 N.am  135  ILE135     -0.1977
    123  CA        32.5960    5.3900   21.7640 C.3   135  ILE135      0.1596
    124  C         33.0790    4.1880   22.5890 C.2   135  ILE135      0.2287
    125  O         33.7500    4.3530   23.6060 O.2   135  ILE135     -0.2864
    126  CB        31.5120    6.1680   22.5410 C.3   135  ILE135      0.0276
    127  CG1       30.1850    5.3760   22.5870 C.3   135  ILE135      0.0022
    128  CG2       31.3230    7.5420   21.9260 C.3   135  ILE135      0.0022
    129  CD1       29.2800    5.7290   23.7790 C.3   135  ILE135      0.0001
    130  N         25.9630   -1.1390   16.4340 N.3   141  PHE141     -0.1241
    131  CA        25.0380   -0.2510   17.1240 C.3   141  PHE141      0.1605
    132  C         24.0440    0.3740   16.1510 C.2   141  PHE141      0.2264
    133  O         24.3160    0.4830   14.9560 O.2   141  PHE141     -0.2867
    134  CB        25.8140    0.8520   17.8530 C.3   141  PHE141      0.0534
    135  CG        26.6930    1.6740   16.9500 C.ar  141  PHE141     -0.0203
    136  CD1       28.0050    1.2730   16.6760 C.ar  141  PHE141     -0.0042
    137  CD2       26.2070    2.8580   16.3650 C.ar  141  PHE141     -0.0042
    138  CE1       28.8160    2.0280   15.8510 C.ar  141  PHE141     -0.0003
    139  CE2       27.0140    3.6310   15.5260 C.ar  141  PHE141     -0.0003
    140  CZ        28.3160    3.2200   15.2650 C.ar  141  PHE141     -0.0000
    141  N         21.5920    3.6140   14.8000 N.3   143  GLN143     -0.1245
    142  CA        21.5490    5.0670   14.7690 C.3   143  GLN143      0.1566
    143  C         20.0940    5.4620   14.7120 C.2   143  GLN143      0.2260
    144  O         19.3130    4.8370   13.9760 O.2   143  GLN143     -0.2867
    145  CB        22.2890    5.6370   13.5570 C.3   143  GLN143      0.0367
    146  CG        23.7330    5.2190   13.4190 C.3   143  GLN143      0.0905
    147  CD        24.3410    5.6910   12.0930 C.2   143  GLN143      0.2608
    148  OE1       23.9030    5.2810   11.0150 O.2   143  GLN143     -0.2717
    149  NE2       25.3520    6.5520   12.1750 N.am  143  GLN143     -0.0878
    150  N         25.0760    8.9720   27.3850 N.3   177  TYR177     -0.1241
    151  CA        26.5120    9.2300   27.3150 C.3   177  TYR177      0.1605
    152  C         26.8060   10.6920   26.9370 C.2   177  TYR177      0.2264
    153  O         27.7690   11.2870   27.4010 O.2   177  TYR177     -0.2867
    154  CB        27.1730    8.2470   26.3250 C.3   177  TYR177      0.0534
    155  CG        28.6160    8.5440   25.9760 C.ar  177  TYR177     -0.0201
    156  CD1       28.9350    9.3500   24.8680 C.ar  177  TYR177     -0.0009
    157  CD2       29.6730    7.9980   26.7300 C.ar  177  TYR177     -0.0009
    158  CE1       30.2590    9.6220   24.5310 C.ar  177  TYR177      0.0417
    159  CE2       31.0170    8.2620   26.3920 C.ar  177  TYR177      0.0417
    160  CZ        31.2920    9.0700   25.2950 C.ar  177  TYR177      0.1957
    161  OH        32.5960    9.3450   24.9680 O.3   177  TYR177     -0.2866
    162  N         29.2520   18.0450   11.6670 N.3   184  GLU184     -0.1245
    163  CA        29.8690   16.8780   11.0740 C.3   184  GLU184      0.1567
    164  C         30.1790   17.1310    9.6010 C.2   184  GLU184      0.2260
    165  O         29.3750   17.7250    8.8760 O.2   184  GLU184     -0.2867
    166  CB        28.9390   15.6720   11.1830 C.3   184  GLU184      0.0388
    167  CG        29.6030   14.3780   10.7250 C.3   184  GLU184      0.1160
    168  CD        28.8630   13.1230   11.1380 C.2   184  GLU184      0.3649
    169  OE1       27.9090   13.1930   11.9430 O.co2 184  GLU184     -0.2457
    170  OE2       29.2420   12.0420   10.6450 O.co2 184  GLU184     -0.2457
@<TRIPOS>BOND
     1    24    25    1
     2    30    29    2
     3    31    29   am
     4    29    28    1
     5   107   106    1
     6    25    28    1
     7    25    26    1
     8   165   164    2
     9   164   163    1
    10    26    27    2
    11   106   108    1
    12   106   105    2
    13   170   168   ar
    14   167   168    1
    15   167   166    1
    16   104   105    1
    17   104   103    1
    18   148   147    2
    19   163   166    1
    20   163   162    1
    21   168   169   ar
    22    99    98    1
    23    99   100    1
    24    99   102    1
    25   103   102    1
    26   147   149   am
    27   147   146    1
    28   100   101    2
    29    97    96    1
    30   115   114    1
    31   115   109    1
    32    95    96   ar
    33    95    93   ar
    34    96    94   ar
    35   114   113    1
    36    22    23   ar
    37    22    20   ar
    38    93    91   ar
    39    32    33    1
    40    94    92   ar
    41    23    21   ar
    42   146   145    1
    43    38    37    1
    44   145   142    1
    45    91    92   ar
    46    91    90    1
    47    90    87    1
    48   144   143    2
    49   109   110    1
    50    33    36    1
    51    33    34    1
    52    13    12    2
    53    20    17   ar
    54    37    36    1
    55    37    39    1
    56    84    83   ar
    57   113   110    1
    58    21    19   ar
    59   143   142    1
    60   142   141    1
    61    12    11    1
    62   133   132    2
    63    34    35    2
    64    89    88    2
    65   110   111    1
    66   140   139   ar
    67   140   138   ar
    68    88    87    1
    69    83    85   ar
    70    83    82    1
    71    87    86    1
    72    17    19   ar
    73    17    15   ar
    74   139   137   ar
    75   112   111    2
    76    19    18   ar
    77   138   136   ar
    78   111   116   am
    79   132   131    1
    80    60    58   ar
    81    60    61   ar
    82    58    56   ar
    83   137   135   ar
    84   130   131    1
    85    82    81    1
    86    11    10    1
    87    11    14    1
    88    80    79    2
    89    15    14    1
    90    15    16   ar
    91   136   135   ar
    92    18    16   ar
    93   135   134    1
    94    62    61    1
    95    81    78    1
    96   131   134    1
    97    61    59   ar
    98   116   117    1
    99    56    55    1
   100    56    57   ar
   101    55    52    1
   102    79    78    1
   103    78    77    1
   104    59    57   ar
   105   117   120    1
   106   117   118    1
   107    76    74   ar
   108    76    75   ar
   109    40    41    1
   110    74    72   ar
   111    52    51    1
   112    52    53    1
   113   120   121    1
   114    49    48    1
   115    41    44    1
   116    41    42    1
   117     4     3    2
   118    75    73   ar
   119    44    45    1
   120    72    71   ar
   121    72    70   ar
   122    46    45    1
   123    46    47    1
   124   118   119    2
   125   118   122   am
   126    71    69   ar
   127    53    54    2
   128    48    47    2
   129    48    50    1
   130     3     2    1
   131    73    70   ar
   132    70    68   ar
   133   122   123    1
   134    42    43    2
   135     9     7   ar
   136    69    68   ar
   137     6     7    1
   138     6     5    1
   139    68    67    1
   140     7     8   ar
   141     2     5    1
   142     2     1    1
   143   123   126    1
   144   123   124    1
   145   128   126    1
   146    63    64    1
   147    64    67    1
   148    64    65    1
   149   126   127    1
   150   127   129    1
   151   124   125    2
   152    65    66    2
   153   158   156   ar
   154   158   160   ar
   155   156   155   ar
   156   161   160    1
   157   160   159   ar
   158   155   154    1
   159   155   157   ar
   160   154   151    1
   161   159   157   ar
   162   152   151    1
   163   152   153    2
   164   151   150    1
