@<TRIPOS>MOLECULE
tmp/2nqyB01.pdb
 118 114 0 0 0
SMALL
GASTEIGER

@<TRIPOS>ATOM
      1  N         35.9190   11.4900    7.8200 N.3    45  ASN45      -0.1240
      2  CA        34.9480   11.8740    8.8390 C.3    45  ASN45       0.1653
      3  C         35.5240   12.8410    9.8680 C.2    45  ASN45       0.2266
      4  O         36.6420   12.6610   10.3520 O.2    45  ASN45      -0.2867
      5  CB        34.4430   10.6440    9.5820 C.3    45  ASN45       0.1155
      6  CG        33.6790    9.7200    8.6980 C.2    45  ASN45       0.2627
      7  OD1       34.2120    8.6930    8.2560 O.2    45  ASN45      -0.2716
      8  ND2       32.4220   10.0700    8.4110 N.am   45  ASN45      -0.0877
      9  N         29.1850   17.2270    1.7080 N.3    79  ASN79      -0.1240
     10  CA        28.4010   16.5570    2.7510 C.3    79  ASN79       0.1653
     11  C         28.7900   17.0140    4.1590 C.2    79  ASN79       0.2266
     12  O         29.9760   16.9840    4.5290 O.2    79  ASN79      -0.2867
     13  CB        28.5370   15.0380    2.6200 C.3    79  ASN79       0.1155
     14  CG        27.5050   14.2620    3.4660 C.2    79  ASN79       0.2627
     15  OD1       26.9090   14.7890    4.4070 O.2    79  ASN79      -0.2716
     16  ND2       27.3080   12.9980    3.1260 N.am   79  ASN79      -0.0877
     17  N         26.5900   18.0410    8.3090 N.3    81  TYR81      -0.1241
     18  CA        25.3870   18.1680    9.1140 C.3    81  TYR81       0.1605
     19  C         25.5690   19.2070   10.1970 C.2    81  TYR81       0.2264
     20  O         26.6290   19.2830   10.8400 O.2    81  TYR81      -0.2867
     21  CB        25.0040   16.8560    9.8310 C.3    81  TYR81       0.0534
     22  CG        25.0340   15.5800    9.0280 C.ar   81  TYR81      -0.0201
     23  CD1       24.5530   15.5340    7.7170 C.ar   81  TYR81      -0.0009
     24  CD2       25.4880   14.3920    9.6100 C.ar   81  TYR81      -0.0009
     25  CE1       24.5710   14.3620    6.9930 C.ar   81  TYR81       0.0417
     26  CE2       25.4940   13.1900    8.8970 C.ar   81  TYR81       0.0417
     27  CZ        25.0350   13.1820    7.5890 C.ar   81  TYR81       0.1957
     28  OH        25.0450   12.0080    6.8490 O.3    81  TYR81      -0.2866
     29  N         23.9920    5.6040   18.5410 N.3    94  GLU94      -0.1245
     30  CA        24.4190    6.9110   18.0870 C.3    94  GLU94       0.1567
     31  C         23.1950    7.6460   17.5250 C.2    94  GLU94       0.2260
     32  O         22.4930    7.1290   16.6500 O.2    94  GLU94      -0.2867
     33  CB        25.5090    6.7470   17.0310 C.3    94  GLU94       0.0388
     34  CG        26.0570    8.0650   16.4630 C.3    94  GLU94       0.1160
     35  CD        27.0880    7.8160   15.3730 C.2    94  GLU94       0.3649
     36  OE1       26.7870    7.0720   14.4110 O.co2  94  GLU94      -0.2457
     37  OE2       28.2080    8.3460   15.4880 O.co2  94  GLU94      -0.2457
     38  N         20.9880   11.3870   16.1580 N.3    96  TYR96      -0.1241
     39  CA        21.0630   12.6340   15.3840 C.3    96  TYR96       0.1605
     40  C         19.7270   13.3270   15.3660 C.2    96  TYR96       0.2264
     41  O         18.7040   12.6800   15.1120 O.2    96  TYR96      -0.2867
     42  CB        21.3770   12.3390   13.9130 C.3    96  TYR96       0.0534
     43  CG        22.7750   11.8950   13.6140 C.ar   96  TYR96      -0.0201
     44  CD1       23.1170   10.5530   13.6240 C.ar   96  TYR96      -0.0009
     45  CD2       23.7470   12.8250   13.2730 C.ar   96  TYR96      -0.0009
     46  CE1       24.4240   10.1430   13.3390 C.ar   96  TYR96       0.0417
     47  CE2       25.0440   12.4400   12.9840 C.ar   96  TYR96       0.0417
     48  CZ        25.3740   11.1020   13.0180 C.ar   96  TYR96       0.1957
     49  OH        26.6610   10.7240   12.7290 O.3    96  TYR96      -0.2866
     50  N         23.4830   16.6040    0.6160 N.3   104  TRP104     -0.1241
     51  CA        22.7680   15.3310    0.7650 C.3   104  TRP104      0.1605
     52  C         22.0080   15.2770    2.0760 C.2   104  TRP104      0.2264
     53  O         22.6000   15.4270    3.1480 O.2   104  TRP104     -0.2867
     54  CB        23.7360   14.1540    0.6530 C.3   104  TRP104      0.0550
     55  CG        23.1030   12.7840    0.8350 C.ar  104  TRP104      0.0003
     56  CD1       22.3030   12.1290   -0.0560 C.ar  104  TRP104      0.0946
     57  CD2       23.2460   11.8960    1.9740 C.ar  104  TRP104      0.0152
     58  NE1       21.9310   10.9020    0.4540 N.ar  104  TRP104     -0.2442
     59  CE2       22.4960   10.7320    1.6900 C.ar  104  TRP104      0.0810
     60  CE3       23.9310   11.9790    3.1990 C.ar  104  TRP104      0.0012
     61  CZ2       22.4100    9.6540    2.5890 C.ar  104  TRP104      0.0191
     62  CZ3       23.8560   10.9150    4.0850 C.ar  104  TRP104      0.0001
     63  CH2       23.1040    9.7660    3.7800 C.ar  104  TRP104      0.0015
     64  N         24.8510    0.1960   12.1170 N.3   129  ARG129     -0.1245
     65  CA        26.2830    0.2410   11.8740 C.3   129  ARG129      0.1563
     66  C         26.8650   -1.0510   12.3960 C.2   129  ARG129      0.2260
     67  O         26.6630   -1.3710   13.5630 O.2   129  ARG129     -0.2867
     68  CB        26.9140    1.4490   12.5670 C.3   129  ARG129      0.0307
     69  CG        26.3680    2.7950   12.0670 C.3   129  ARG129      0.0489
     70  CD        27.0270    3.2400   10.7640 C.3   129  ARG129      0.2205
     71  NE        28.4050    3.6480   11.0110 N.pl3 129  ARG129     -0.0865
     72  CZ        29.3290    3.8570   10.0750 C.cat 129  ARG129      0.5346
     73  NH1       29.0360    3.6980    8.7890 N.pl3 129  ARG129      0.1354
     74  NH2       30.5540    4.2310   10.4310 N.pl3 129  ARG129      0.1354
     75  N         21.5920    3.6140   14.8000 N.3   143  GLN143     -0.1245
     76  CA        21.5490    5.0670   14.7690 C.3   143  GLN143      0.1566
     77  C         20.0940    5.4620   14.7120 C.2   143  GLN143      0.2260
     78  O         19.3130    4.8370   13.9760 O.2   143  GLN143     -0.2867
     79  CB        22.2890    5.6370   13.5570 C.3   143  GLN143      0.0367
     80  CG        23.7330    5.2190   13.4190 C.3   143  GLN143      0.0905
     81  CD        24.3410    5.6910   12.0930 C.2   143  GLN143      0.2608
     82  OE1       23.9030    5.2810   11.0150 O.2   143  GLN143     -0.2717
     83  NE2       25.3520    6.5520   12.1750 N.am  143  GLN143     -0.0878
     84  N         17.6560    8.8310   13.9680 N.3   145  TRP145     -0.1241
     85  CA        17.6960   10.1120   13.2420 C.3   145  TRP145      0.1605
     86  C         16.3460   10.8090   13.3050 C.2   145  TRP145      0.2264
     87  O         15.3030   10.1680   13.1430 O.2   145  TRP145     -0.2867
     88  CB        18.0090    9.9180   11.7520 C.3   145  TRP145      0.0550
     89  CG        19.2610    9.1800   11.4410 C.ar  145  TRP145      0.0003
     90  CD1       19.4700    7.8150   11.5400 C.ar  145  TRP145      0.0946
     91  CD2       20.4880    9.7370   10.9460 C.ar  145  TRP145      0.0152
     92  NE1       20.7590    7.5120   11.1460 N.ar  145  TRP145     -0.2442
     93  CE2       21.3980    8.6700   10.7760 C.ar  145  TRP145      0.0810
     94  CE3       20.9110   11.0370   10.6420 C.ar  145  TRP145      0.0012
     95  CZ2       22.7070    8.8710   10.3240 C.ar  145  TRP145      0.0191
     96  CZ3       22.2060   11.2320   10.1660 C.ar  145  TRP145      0.0001
     97  CH2       23.0840   10.1610   10.0140 C.ar  145  TRP145      0.0015
     98  N         29.2520   18.0450   11.6670 N.3   184  GLU184     -0.1245
     99  CA        29.8690   16.8780   11.0740 C.3   184  GLU184      0.1567
    100  C         30.1790   17.1310    9.6010 C.2   184  GLU184      0.2260
    101  O         29.3750   17.7250    8.8760 O.2   184  GLU184     -0.2867
    102  CB        28.9390   15.6720   11.1830 C.3   184  GLU184      0.0388
    103  CG        29.6030   14.3780   10.7250 C.3   184  GLU184      0.1160
    104  CD        28.8630   13.1230   11.1380 C.2   184  GLU184      0.3649
    105  OE1       27.9090   13.1930   11.9430 O.co2 184  GLU184     -0.2457
    106  OE2       29.2420   12.0420   10.6450 O.co2 184  GLU184     -0.2457
    107  N         31.5660   15.0260    6.0730 N.3   186  TYR186     -0.1241
    108  CA        31.8200   13.7220    5.4570 C.3   186  TYR186      0.1605
    109  C         32.3900   13.8790    4.0520 C.2   186  TYR186      0.2264
    110  O         31.7140   14.3890    3.1510 O.2   186  TYR186     -0.2867
    111  CB        30.5520   12.8690    5.3990 C.3   186  TYR186      0.0534
    112  CG        30.7730   11.5040    4.7950 C.ar  186  TYR186     -0.0201
    113  CD1       31.5120   10.5300    5.4770 C.ar  186  TYR186     -0.0009
    114  CD2       30.2250   11.1720    3.5560 C.ar  186  TYR186     -0.0009
    115  CE1       31.7170    9.2690    4.9420 C.ar  186  TYR186      0.0417
    116  CE2       30.4220    9.8930    3.0020 C.ar  186  TYR186      0.0417
    117  CZ        31.1760    8.9550    3.7050 C.ar  186  TYR186      0.1957
    118  OH        31.3870    7.6970    3.1810 O.3   186  TYR186     -0.2866
@<TRIPOS>BOND
     1    56    58   ar
     2    56    55   ar
     3    58    59   ar
     4    50    51    1
     5    54    51    1
     6    54    55    1
     7    51    52    1
     8    55    57   ar
     9    59    57   ar
    10    59    61   ar
    11     9    10    1
    12    57    60   ar
    13    52    53    2
    14    61    63   ar
    15    13    10    1
    16    13    14    1
    17    10    11    1
    18   116   114   ar
    19   116   117   ar
    20    16    14   am
    21   110   109    2
    22   118   117    1
    23    60    62   ar
    24    14    15    2
    25   114   112   ar
    26   117   115   ar
    27    63    62   ar
    28   109   108    1
    29    11    12    2
    30   112   111    1
    31   112   113   ar
    32   115   113   ar
    33   111   108    1
    34   108   107    1
    35    28    27    1
    36    25    27   ar
    37    25    23   ar
    38    27    26   ar
    39    23    22   ar
    40     1     2    1
    41     7     6    2
    42    17    18    1
    43     8     6   am
    44     6     5    1
    45    73    72    1
    46     2     5    1
    47     2     3    1
    48   101   100    2
    49    26    24   ar
    50    22    24   ar
    51    22    21    1
    52    18    21    1
    53    18    19    1
    54   100    99    1
    55     3     4    2
    56    97    96   ar
    57    97    95   ar
    58    72    74    1
    59    72    71    2
    60    96    94   ar
    61    19    20    2
    62    95    93   ar
    63    94    91   ar
    64   106   104   ar
    65   103   104    1
    66   103   102    1
    67    70    71    1
    68    70    69    1
    69    93    91   ar
    70    93    92   ar
    71    91    89   ar
    72    82    81    2
    73    99   102    1
    74    99    98    1
    75   104   105   ar
    76    92    90   ar
    77    89    90   ar
    78    89    88    1
    79    88    85    1
    80    65    64    1
    81    65    66    1
    82    65    68    1
    83    69    68    1
    84    81    83   am
    85    81    80    1
    86    66    67    2
    87    49    48    1
    88    47    48   ar
    89    47    45   ar
    90    48    46   ar
    91    87    86    2
    92    85    86    1
    93    85    84    1
    94    45    43   ar
    95    46    44   ar
    96    80    79    1
    97    79    76    1
    98    43    44   ar
    99    43    42    1
   100    42    39    1
   101    78    77    2
   102    36    35   ar
   103    77    76    1
   104    76    75    1
   105    41    40    2
   106    40    39    1
   107    35    37   ar
   108    35    34    1
   109    39    38    1
   110    34    33    1
   111    32    31    2
   112    33    30    1
   113    31    30    1
   114    30    29    1
