@<TRIPOS>MOLECULE
tmp/2nr4A00.pdb
 158 152 0 0 0
SMALL
GASTEIGER

@<TRIPOS>ATOM
      1  N         40.9730   35.0360   24.9730 N.3    13  GLU13      -0.1245
      2  CA        41.1480   35.8400   23.7470 C.3    13  GLU13       0.1567
      3  C         40.0450   35.4770   22.7750 C.2    13  GLU13       0.2260
      4  O         40.0360   34.3740   22.1650 O.2    13  GLU13      -0.2867
      5  CB        42.5290   35.6130   23.1160 C.3    13  GLU13       0.0388
      6  CG        43.7180   35.7890   24.1150 C.3    13  GLU13       0.1160
      7  CD        43.9640   37.2310   24.5450 C.2    13  GLU13       0.3649
      8  OE1       43.2960   38.1740   24.0030 O.co2  13  GLU13      -0.2457
      9  OE2       44.8310   37.4360   25.4520 O.co2  13  GLU13      -0.2457
     10  N         30.8210   45.6190   14.0040 N.3    24  ASN24      -0.1225
     11  CA        32.2600   45.6960   14.0120 C.3    24  ASN24       0.1785
     12  C         32.7750   44.5030   14.8060 C.2    24  ASN24       0.2597
     13  O         32.1130   44.0350   15.7530 O.2    24  ASN24      -0.2718
     14  CB        32.6820   46.9330   14.8000 C.3    24  ASN24       0.1169
     15  CG        34.1780   47.1360   14.7790 C.2    24  ASN24       0.2627
     16  OD1       34.8930   46.9620   15.8010 O.2    24  ASN24      -0.2716
     17  ND2       34.6750   47.4870   13.6180 N.am   24  ASN24      -0.0877
     18  N         33.9300   44.0030   14.4140 N.am   25  ALA25      -0.1966
     19  CA        34.5500   42.9130   15.1710 C.3    25  ALA25       0.1728
     20  C         35.9950   43.2860   15.4710 C.2    25  ALA25       0.2616
     21  O         36.6620   43.9030   14.6470 O.2    25  ALA25      -0.2715
     22  CB        34.4990   41.6450   14.3520 C.3    25  ALA25       0.0334
     23  N         36.5070   42.8790   16.6260 N.am   26  ALA26      -0.1964
     24  CA        37.9380   43.1190   16.9380 C.3    26  ALA26       0.1713
     25  C         38.3860   42.1440   18.0320 C.2    26  ALA26       0.2458
     26  O         37.6120   41.8730   18.9280 O.2    26  ALA26      -0.2730
     27  CB        38.1050   44.5420   17.4430 C.3    26  ALA26       0.0333
     28  N         39.6110   41.6160   17.9520 N.am   27  PRO27      -0.2716
     29  CA        40.1070   40.7960   19.0910 C.3    27  PRO27       0.1536
     30  C         40.1950   41.5840   20.3770 C.2    27  PRO27       0.2598
     31  O         40.6390   42.7440   20.4050 O.2    27  PRO27      -0.2715
     32  CB        41.4810   40.3250   18.6300 C.3    27  PRO27       0.0310
     33  CG        41.3530   40.3150   17.1580 C.3    27  PRO27       0.0237
     34  CD        40.5660   41.5840   16.8390 C.3    27  PRO27       0.0939
     35  N         39.7130   40.9490   21.4480 N.am   28  ILE28      -0.1964
     36  CA        39.6830   41.5660   22.7620 C.3    28  ILE28       0.1727
     37  C         39.8590   40.4580   23.7650 C.2    28  ILE28       0.2616
     38  O         39.3460   39.3680   23.5590 O.2    28  ILE28      -0.2715
     39  CB        38.2880   42.2220   23.0130 C.3    28  ILE28       0.0290
     40  CG1       38.0360   43.3770   22.0150 C.3    28  ILE28       0.0022
     41  CG2       38.1600   42.7210   24.4250 C.3    28  ILE28       0.0023
     42  CD1       38.7890   44.6570   22.3670 C.3    28  ILE28       0.0001
     43  N         40.5690   40.7360   24.8520 N.am   29  GLY29      -0.1955
     44  CA        40.7030   39.7350   25.9370 C.3    29  GLY29       0.1869
     45  C         39.6230   40.0210   26.9870 C.2    29  GLY29       0.2309
     46  O         39.5090   41.1510   27.4630 O.2    29  GLY29      -0.2863
     47  N         39.2880   45.6080   29.1170 N.3    40  ARG40      -0.1231
     48  CA        40.0640   46.8280   29.1640 C.3    40  ARG40       0.1694
     49  C         40.1930   47.1610   27.7050 C.2    40  ARG40       0.2592
     50  O         40.8380   46.4180   26.9530 O.2    40  ARG40      -0.2718
     51  CB        41.4720   46.6040   29.7550 C.3    40  ARG40       0.0321
     52  CG        41.5370   46.0980   31.1790 C.3    40  ARG40       0.0489
     53  CD        42.9510   46.3470   31.8130 C.3    40  ARG40       0.2205
     54  NE        43.0480   45.8300   33.1950 N.pl3  40  ARG40      -0.0865
     55  CZ        42.9440   46.5640   34.3050 C.cat  40  ARG40       0.5346
     56  NH1       42.7860   47.8770   34.2430 N.pl3  40  ARG40       0.1354
     57  NH2       43.0270   45.9790   35.5000 N.pl3  40  ARG40       0.1354
     58  N         39.5300   48.2230   27.2820 N.am   41  LEU41      -0.1966
     59  CA        39.5790   48.6260   25.8810 C.3    41  LEU41       0.1728
     60  C         40.4800   49.8580   25.6840 C.2    41  LEU41       0.2616
     61  O         40.3300   50.8710   26.3560 O.2    41  LEU41      -0.2715
     62  CB        38.1700   48.9230   25.3700 C.3    41  LEU41       0.0311
     63  CG        37.0320   47.9870   25.7480 C.3    41  LEU41       0.0022
     64  CD1       35.6970   48.6360   25.4430 C.3    41  LEU41       0.0001
     65  CD2       37.1630   46.7060   24.9380 C.3    41  LEU41       0.0001
     66  N         41.4180   49.7650   24.7500 N.am   42  PHE42      -0.1974
     67  CA        42.2340   50.8920   24.3450 C.3    42  PHE42       0.1639
     68  C         41.3610   52.0190   23.7940 C.2    42  PHE42       0.2290
     69  O         40.4830   51.7980   22.9530 O.2    42  PHE42      -0.2864
     70  CB        43.2660   50.4430   23.3010 C.3    42  PHE42       0.0560
     71  CG        44.3600   49.5840   23.8740 C.ar   42  PHE42      -0.0200
     72  CD1       45.1590   50.0610   24.9190 C.ar   42  PHE42      -0.0042
     73  CD2       44.5970   48.3120   23.3760 C.ar   42  PHE42      -0.0042
     74  CE1       46.1830   49.2740   25.4600 C.ar   42  PHE42      -0.0003
     75  CE2       45.5990   47.5130   23.9110 C.ar   42  PHE42      -0.0003
     76  CZ        46.4010   47.9920   24.9610 C.ar   42  PHE42      -0.0000
     77  N         39.4410   53.1500   19.7250 N.3    45  SER45      -0.1202
     78  CA        39.1260   52.0710   18.8040 C.3    45  SER45       0.2020
     79  C         37.6320   52.0420   18.4630 C.2    45  SER45       0.2619
     80  O         36.8110   52.6760   19.1280 O.2    45  SER45      -0.2717
     81  CB        39.5400   50.7410   19.4130 C.3    45  SER45       0.2103
     82  OG        38.6770   50.3920   20.4950 O.3    45  SER45      -0.2182
     83  N         37.2630   51.2910   17.4360 N.am   46  HIS46      -0.1961
     84  CA        35.8500   51.2240   17.1260 C.3    46  HIS46       0.1787
     85  C         35.0590   50.4940   18.2370 C.2    46  HIS46       0.2620
     86  O         33.9440   50.8900   18.5910 O.2    46  HIS46      -0.2715
     87  CB        35.6270   50.6550   15.7240 C.3    46  HIS46       0.0785
     88  CG        35.5860   51.7150   14.6560 C.ar   46  HIS46       0.0821
     89  ND1       34.6240   52.7120   14.6310 N.ar   46  HIS46      -0.2267
     90  CD2       36.3930   51.9430   13.5910 C.ar   46  HIS46       0.1154
     91  CE1       34.8280   53.4900   13.5820 C.ar   46  HIS46       0.1986
     92  NE2       35.9020   53.0540   12.9410 N.ar   46  HIS46      -0.2212
     93  N         35.6430   49.4330   18.7880 N.am   47  THR47      -0.1951
     94  CA        35.0160   48.7200   19.9190 C.3    47  THR47       0.1897
     95  C         34.7770   49.6620   21.0850 C.2    47  THR47       0.2313
     96  O         33.7080   49.6590   21.7040 O.2    47  THR47      -0.2863
     97  CB        35.9420   47.5660   20.3850 C.3    47  THR47       0.1794
     98  OG1       36.2180   46.7380   19.2700 O.3    47  THR47      -0.2208
     99  CG2       35.3030   46.7500   21.4790 C.3    47  THR47       0.0378
    100  N         40.6950   35.8540   13.1280 N.3    68  PHE68      -0.1241
    101  CA        41.4390   36.7220   14.0140 C.3    68  PHE68       0.1605
    102  C         42.2070   37.8410   13.3450 C.2    68  PHE68       0.2264
    103  O         42.2290   38.9800   13.8120 O.2    68  PHE68      -0.2867
    104  CB        42.4540   35.9110   14.8720 C.3    68  PHE68       0.0534
    105  CG        42.0100   35.6900   16.2580 C.ar   68  PHE68      -0.0203
    106  CD1       42.2580   36.6450   17.2320 C.ar   68  PHE68      -0.0042
    107  CD2       41.3320   34.5320   16.6010 C.ar   68  PHE68      -0.0042
    108  CE1       41.8430   36.4440   18.5130 C.ar   68  PHE68      -0.0003
    109  CE2       40.9180   34.3430   17.8840 C.ar   68  PHE68      -0.0003
    110  CZ        41.1700   35.3190   18.8290 C.ar   68  PHE68      -0.0000
    111  N         39.8130   40.2940   11.5120 N.3    71  SER71      -0.1202
    112  CA        39.1300   41.2260   12.4210 C.3    71  SER71       0.2020
    113  C         40.0960   42.2370   13.0430 C.2    71  SER71       0.2619
    114  O         39.6980   43.2980   13.5180 O.2    71  SER71      -0.2717
    115  CB        38.3540   40.4810   13.4950 C.3    71  SER71       0.2103
    116  OG        39.2600   39.8370   14.3520 O.3    71  SER71      -0.2182
    117  N         41.3830   41.9140   13.0780 N.am   72  THR72      -0.1952
    118  CA        42.3490   42.8530   13.6360 C.3    72  THR72       0.1897
    119  C         42.6810   43.9730   12.6810 C.2    72  THR72       0.2313
    120  O         42.7590   45.1260   13.0870 O.2    72  THR72      -0.2863
    121  CB        43.6940   42.1570   14.0020 C.3    72  THR72       0.1794
    122  OG1       43.4440   41.1450   14.9570 O.3    72  THR72      -0.2208
    123  CG2       44.7220   43.1730   14.5490 C.3    72  THR72       0.0378
    124  N         41.2800   44.5380    9.4670 N.3    74  SER74      -0.1217
    125  CA        40.2650   44.8610    8.4580 C.3    74  SER74       0.1889
    126  C         38.9120   45.0630    9.0960 C.2    74  SER74       0.2288
    127  O         38.7750   45.0440   10.3050 O.2    74  SER74      -0.2866
    128  CB        40.1420   43.7460    7.4140 C.3    74  SER74       0.2089
    129  OG        41.3880   43.4350    6.8280 O.3    74  SER74      -0.2183
    130  N         48.5470   34.3640   16.8730 N.3   144  LEU144     -0.1245
    131  CA        48.0100   35.2320   17.9140 C.3   144  LEU144      0.1561
    132  C         49.0810   36.2400   18.3820 C.2   144  LEU144      0.2260
    133  O         48.8190   37.4510   18.5020 O.2   144  LEU144     -0.2867
    134  CB        47.5870   34.3720   19.1020 C.3   144  LEU144      0.0270
    135  CG        46.2800   34.6690   19.7830 C.3   144  LEU144      0.0019
    136  CD1       45.1670   34.6440   18.6920 C.3   144  LEU144      0.0001
    137  CD2       46.0070   33.5680   20.8820 C.3   144  LEU144      0.0001
    138  N         50.0130   38.8350   15.6880 N.3   147  THR147     -0.1203
    139  CA        48.9930   39.8920   15.5640 C.3   147  THR147      0.1994
    140  C         49.1970   40.9520   16.6610 C.2   147  THR147      0.2617
    141  O         49.1420   42.1430   16.3830 O.2   147  THR147     -0.2717
    142  CB        47.5300   39.3580   15.5820 C.3   147  THR147      0.1784
    143  OG1       47.2290   38.7870   16.8730 O.3   147  THR147     -0.2211
    144  CG2       47.3570   38.2780   14.5370 C.3   147  THR147      0.0376
    145  N         49.5330   40.5320   17.8790 N.am  148  VAL148     -0.1979
    146  CA        49.8170   41.4940   18.9510 C.3   148  VAL148      0.1595
    147  C         51.0250   42.3550   18.5500 C.2   148  VAL148      0.2287
    148  O         50.9550   43.6120   18.5180 O.2   148  VAL148     -0.2864
    149  CB        50.0080   40.7860   20.3220 C.3   148  VAL148      0.0276
    150  CG1       50.2400   41.8200   21.4690 C.3   148  VAL148      0.0022
    151  CG2       48.7780   39.9920   20.6420 C.3   148  VAL148      0.0022
    152  N         50.4010   44.9080   15.7630 N.3   151  THR151     -0.1218
    153  CA        49.7160   46.1280   16.1990 C.3   151  THR151      0.1862
    154  C         50.6680   47.0760   16.9260 C.2   151  THR151      0.2287
    155  O         50.5400   48.3160   16.8360 O.2   151  THR151     -0.2866
    156  CB        48.4420   45.8660   17.0790 C.3   151  THR151      0.1770
    157  OG1       48.8100   45.3410   18.3490 O.3   151  THR151     -0.2211
    158  CG2       47.4370   44.9360   16.3970 C.3   151  THR151      0.0375
@<TRIPOS>BOND
     1   129   128    1
     2   128   125    1
     3   125   126    1
     4   125   124    1
     5   126   127    2
     6   111   112    1
     7   112   113    1
     8   112   115    1
     9   119   120    2
    10   119   118    1
    11    92    91   ar
    12    92    90   ar
    13   113   117   am
    14   113   114    2
    15   117   118    1
    16   100   101    1
    17   102   103    2
    18   102   101    1
    19   115   116    1
    20    91    89   ar
    21    90    88   ar
    22    17    15   am
    23   118   121    1
    24   121   123    1
    25   121   122    1
    26    10    11    1
    27    11    14    1
    28    11    12    1
    29   101   104    1
    30    22    19    1
    31    18    12   am
    32    18    19    1
    33   144   142    1
    34    89    88   ar
    35    21    20    2
    36    88    87    1
    37    15    14    1
    38    15    16    2
    39    12    13    2
    40   104   105    1
    41    19    20    1
    42    20    23   am
    43   139   142    1
    44   139   138    1
    45   139   140    1
    46   142   143    1
    47    87    84    1
    48   152   153    1
    49   153   154    1
    50   153   156    1
    51   105   107   ar
    52   105   106   ar
    53   141   140    2
    54   158   156    1
    55   107   109   ar
    56    23    24    1
    57   140   145   am
    58   155   154    2
    59    34    33    1
    60    34    28    1
    61   130   131    1
    62    24    27    1
    63    24    25    1
    64   156   157    1
    65    84    83    1
    66    84    85    1
    67    33    32    1
    68   106   108   ar
    69    83    79   am
    70   145   146    1
    71   109   110   ar
    72   131   132    1
    73   131   134    1
    74    28    25   am
    75    28    29    1
    76    25    26    2
    77    85    86    2
    78    85    93   am
    79   132   133    2
    80    79    78    1
    81    79    80    2
    82   108   110   ar
    83   148   147    2
    84   147   146    1
    85    32    29    1
    86   136   135    1
    87    93    94    1
    88    78    81    1
    89    78    77    1
    90   146   149    1
    91    29    30    1
    92   134   135    1
    93    98    97    1
    94    81    82    1
    95   135   137    1
    96    94    97    1
    97    94    95    1
    98   149   151    1
    99   149   150    1
   100    30    31    2
   101    30    35   am
   102    97    99    1
   103    95    96    2
   104    35    36    1
   105    40    42    1
   106    40    39    1
   107     4     3    2
   108    36    39    1
   109    36    37    1
   110     3     2    1
   111    69    68    2
   112    39    41    1
   113     5     2    1
   114     5     6    1
   115    70    71    1
   116    70    67    1
   117    73    71   ar
   118    73    75   ar
   119    38    37    2
   120     2     1    1
   121    37    43   am
   122    68    67    1
   123    71    72   ar
   124    75    76   ar
   125     8     7   ar
   126     6     7    1
   127    67    66    1
   128     7     9   ar
   129    66    60   am
   130    43    44    1
   131    72    74   ar
   132    65    63    1
   133    76    74   ar
   134    62    63    1
   135    62    59    1
   136    64    63    1
   137    60    59    1
   138    60    61    2
   139    59    58    1
   140    44    45    1
   141    50    49    2
   142    45    46    2
   143    58    49   am
   144    49    48    1
   145    47    48    1
   146    48    51    1
   147    51    52    1
   148    52    53    1
   149    53    54    1
   150    54    55    2
   151    56    55    1
   152    55    57    1
