@<TRIPOS>MOLECULE
tmp/2nr9A00.pdb
 88 83 0 0 0
SMALL
GASTEIGER

@<TRIPOS>ATOM
      1  N        -32.2590   -6.2640   29.7340 N.3    12  LEU12      -0.1245
      2  CA       -31.4890   -6.6620   28.5490 C.3    12  LEU12       0.1561
      3  C        -31.7820   -8.1010   28.1260 C.2    12  LEU12       0.2260
      4  O        -31.8880   -8.4060   26.9290 O.2    12  LEU12      -0.2867
      5  CB       -29.9870   -6.4540   28.7790 C.3    12  LEU12       0.0270
      6  CG       -29.5280   -4.9960   28.8380 C.3    12  LEU12       0.0019
      7  CD1      -28.0670   -4.8930   29.2710 C.3    12  LEU12       0.0001
      8  CD2      -29.7490   -4.3060   27.4910 C.3    12  LEU12       0.0001
      9  N        -35.3020   -8.1340   26.6080 N.3    15  LEU15      -0.1245
     10  CA       -35.3020   -7.4840   25.2910 C.3    15  LEU15       0.1561
     11  C        -34.8090   -8.4430   24.2220 C.2    15  LEU15       0.2260
     12  O        -35.3560   -8.4920   23.1140 O.2    15  LEU15      -0.2867
     13  CB       -34.4380   -6.2170   25.2860 C.3    15  LEU15       0.0270
     14  CG       -35.0850   -4.9100   25.7370 C.3    15  LEU15       0.0019
     15  CD1      -34.0690   -3.7820   25.7040 C.3    15  LEU15       0.0001
     16  CD2      -36.2770   -4.5780   24.8480 C.3    15  LEU15       0.0001
     17  N        -37.0620   -9.6940   21.0610 N.3    19  ILE19      -0.1245
     18  CA       -36.6330   -9.4680   19.7000 C.3    19  ILE19       0.1561
     19  C        -36.4610  -10.7950   18.9450 C.2    19  ILE19       0.2260
     20  O        -36.8850  -10.9160   17.7950 O.2    19  ILE19      -0.2867
     21  CB       -35.3710   -8.5970   19.6460 C.3    19  ILE19       0.0252
     22  CG1      -35.7050   -7.1770   20.1330 C.3    19  ILE19       0.0019
     23  CG2      -34.8180   -8.5430   18.2270 C.3    19  ILE19       0.0019
     24  CD1      -34.4940   -6.3270   20.4170 C.3    19  ILE19       0.0001
     25  N        -32.7690   -3.0220   10.4870 N.3    34  LEU34      -0.1231
     26  CA       -32.7620   -1.8920   11.4040 C.3    34  LEU34       0.1693
     27  C        -31.6770   -2.0190   12.4730 C.2    34  LEU34       0.2591
     28  O        -31.1660   -1.0160   12.9700 O.2    34  LEU34      -0.2718
     29  CB       -34.1290   -1.7790   12.0930 C.3    34  LEU34       0.0284
     30  CG       -34.3820   -0.5790   13.0130 C.3    34  LEU34       0.0019
     31  CD1      -35.7170   -0.7370   13.7290 C.3    34  LEU34       0.0001
     32  CD2      -33.2650   -0.4220   14.0210 C.3    34  LEU34       0.0001
     33  N        -31.2790   -3.2530   12.7680 N.am   35  MET35      -0.1979
     34  CA       -30.4130   -3.5260   13.9210 C.3    35  MET35       0.1605
     35  C        -28.9300   -3.7600   13.6320 C.2    35  MET35       0.2287
     36  O        -28.1040   -3.6470   14.5320 O.2    35  MET35      -0.2864
     37  CB       -30.9780   -4.7130   14.7000 C.3    35  MET35       0.0413
     38  CG       -32.4510   -4.5710   15.0160 C.3    35  MET35       0.0598
     39  SD       -32.7740   -3.7230   16.5640 S.3    35  MET35      -0.1393
     40  CE       -32.7310   -5.1290   17.6850 C.3    35  MET35       0.0692
     41  N        -27.8370    4.0820   16.9440 N.3    48  TRP48      -0.1241
     42  CA       -28.2920    2.8960   17.6860 C.3    48  TRP48       0.1605
     43  C        -27.6060    1.6530   17.1300 C.2    48  TRP48       0.2264
     44  O        -27.3680    0.6750   17.8510 O.2    48  TRP48      -0.2867
     45  CB       -29.8120    2.7380   17.5930 C.3    48  TRP48       0.0550
     46  CG       -30.2990    2.5250   16.1950 C.ar   48  TRP48       0.0003
     47  CD1      -30.4040    1.3340   15.5350 C.ar   48  TRP48       0.0946
     48  CD2      -30.7270    3.5360   15.2710 C.ar   48  TRP48       0.0152
     49  NE1      -30.8650    1.5410   14.2540 N.ar   48  TRP48      -0.2442
     50  CE2      -31.0720    2.8850   14.0690 C.ar   48  TRP48       0.0810
     51  CE3      -30.8440    4.9270   15.3430 C.ar   48  TRP48       0.0012
     52  CZ2      -31.5310    3.5780   12.9490 C.ar   48  TRP48       0.0191
     53  CZ3      -31.3050    5.6160   14.2290 C.ar   48  TRP48       0.0001
     54  CH2      -31.6410    4.9400   13.0490 C.ar   48  TRP48       0.0015
     55  N        -24.7850   -0.3640   18.6990 N.3    51  ILE51      -0.1231
     56  CA       -25.1050   -1.1690   19.8710 C.3    51  ILE51       0.1692
     57  C        -26.1770   -2.2330   19.5950 C.2    51  ILE51       0.2592
     58  O        -26.0850   -3.3540   20.0930 O.2    51  ILE51      -0.2718
     59  CB       -25.6260   -0.2720   21.0330 C.3    51  ILE51       0.0266
     60  CG1      -24.7280    0.9550   21.2200 C.3    51  ILE51       0.0019
     61  CG2      -25.7460   -1.0670   22.3230 C.3    51  ILE51       0.0020
     62  CD1      -23.3000    0.6240   21.5670 C.3    51  ILE51       0.0001
     63  N        -27.1720   -1.8810   18.7780 N.am   52  SER52      -0.1952
     64  CA       -28.3360   -2.7460   18.5420 C.3    52  SER52       0.1924
     65  C        -28.0460   -4.1470   18.0150 C.2    52  SER52       0.2314
     66  O        -28.8260   -5.0660   18.2420 O.2    52  SER52      -0.2863
     67  CB       -29.3840   -2.0460   17.6650 C.3    52  SER52       0.2116
     68  OG       -28.8640   -1.7130   16.3820 O.3    52  SER52      -0.2180
     69  N        -28.6700   -7.2880   20.1450 N.3    55  LEU55      -0.1245
     70  CA       -30.0030   -7.7230   20.5510 C.3    55  LEU55       0.1561
     71  C        -30.6210   -8.7700   19.6180 C.2    55  LEU55       0.2260
     72  O        -31.7450   -9.2240   19.8470 O.2    55  LEU55      -0.2867
     73  CB       -30.9260   -6.5090   20.6430 C.3    55  LEU55       0.0270
     74  CG       -31.0200   -5.7000   21.9490 C.3    55  LEU55       0.0019
     75  CD1      -29.8390   -5.8860   22.8850 C.3    55  LEU55       0.0001
     76  CD2      -31.3120   -4.2250   21.6740 C.3    55  LEU55       0.0001
     77  N        -22.0120   -2.5570   29.0000 N.3    90  TYR90      -0.1241
     78  CA       -22.8170   -3.0310   27.8590 C.3    90  TYR90       0.1605
     79  C        -22.7230   -2.1210   26.6340 C.2    90  TYR90       0.2264
     80  O        -22.5020   -2.5920   25.5080 O.2    90  TYR90      -0.2867
     81  CB       -24.2870   -3.2310   28.2530 C.3    90  TYR90       0.0534
     82  CG       -25.2020   -3.3930   27.0590 C.ar   90  TYR90      -0.0201
     83  CD1      -25.2580   -4.5940   26.3540 C.ar   90  TYR90      -0.0009
     84  CD2      -25.9770   -2.3330   26.6080 C.ar   90  TYR90      -0.0009
     85  CE1      -26.0710   -4.7310   25.2330 C.ar   90  TYR90       0.0417
     86  CE2      -26.7980   -2.4620   25.4900 C.ar   90  TYR90       0.0417
     87  CZ       -26.8410   -3.6600   24.8080 C.ar   90  TYR90       0.1957
     88  OH       -27.6610   -3.7880   23.7040 O.3    90  TYR90      -0.2866
@<TRIPOS>BOND
     1    25    26    1
     2    26    29    1
     3    26    27    1
     4    29    30    1
     5    27    33   am
     6    27    28    2
     7    33    34    1
     8    52    54   ar
     9    52    50   ar
    10    30    31    1
    11    30    32    1
    12    54    53   ar
    13    35    34    1
    14    35    36    2
    15    34    37    1
    16    50    49   ar
    17    50    48   ar
    18    53    51   ar
    19    49    47   ar
    20    37    38    1
    21    38    39    1
    22    48    51   ar
    23    48    46   ar
    24    47    46   ar
    25    46    45    1
    26    68    67    1
    27    39    40    1
    28    41    42    1
    29    43    42    1
    30    43    44    2
    31    45    42    1
    32    67    64    1
    33    20    19    2
    34    65    66    2
    35    65    64    1
    36    23    21    1
    37    64    63    1
    38    55    56    1
    39    63    57   am
    40    19    18    1
    41    57    56    1
    42    57    58    2
    43    71    72    2
    44    71    70    1
    45    21    18    1
    46    21    22    1
    47    18    17    1
    48    56    59    1
    49    22    24    1
    50    69    70    1
    51    70    73    1
    52    73    74    1
    53    59    60    1
    54    59    61    1
    55    60    62    1
    56    76    74    1
    57    74    75    1
    58    12    11    2
    59    88    87    1
    60    11    10    1
    61    87    85   ar
    62    87    86   ar
    63    16    14    1
    64    85    83   ar
    65    13    10    1
    66    13    14    1
    67    10     9    1
    68    86    84   ar
    69    80    79    2
    70    15    14    1
    71    83    82   ar
    72    84    82   ar
    73    79    78    1
    74     4     3    2
    75    82    81    1
    76     8     6    1
    77    78    81    1
    78    78    77    1
    79     3     2    1
    80     2     5    1
    81     2     1    1
    82     5     6    1
    83     6     7    1
