@<TRIPOS>MOLECULE
tmp/2nr9A03.pdb
 153 143 0 0 0
SMALL
GASTEIGER

@<TRIPOS>ATOM
      1  N        -22.8160    0.6230   36.1590 N.3    85  LYS85      -0.1245
      2  CA       -21.6290   -0.0940   35.7260 C.3    85  LYS85       0.1561
      3  C        -21.9620   -1.1120   34.6350 C.2    85  LYS85       0.2260
      4  O        -21.2780   -1.1840   33.6140 O.2    85  LYS85      -0.2867
      5  CB       -20.9730   -0.7960   36.9210 C.3    85  LYS85       0.0271
      6  CG       -19.7280   -1.6000   36.5750 C.3    85  LYS85       0.0035
      7  CD       -18.6030   -0.6980   36.0960 C.3    85  LYS85       0.0206
      8  CE       -18.1290    0.2260   37.2110 C.3    85  LYS85       0.1093
      9  NZ       -17.1070    1.2000   36.7290 N.3    85  LYS85      -0.1314
     10  N        -23.1110    0.6460   31.3700 N.3    88  MET88      -0.1245
     11  CA       -21.9010    1.1900   30.7290 C.3    88  MET88       0.1570
     12  C        -21.0470    0.1290   30.0380 C.2    88  MET88       0.2261
     13  O        -20.6270    0.3060   28.8900 O.2    88  MET88      -0.2867
     14  CB       -21.0410    1.9490   31.7500 C.3    88  MET88       0.0387
     15  CG       -21.5650    3.3300   32.1290 C.3    88  MET88       0.0595
     16  SD       -20.4430    4.1810   33.2740 S.3    88  MET88      -0.1393
     17  CE       -21.2880    5.7470   33.4860 C.3    88  MET88       0.0692
     18  N        -20.4870    0.2000   25.9260 N.3    92  VAL92      -0.1245
     19  CA       -19.0990    0.2870   25.4590 C.3    92  VAL92       0.1561
     20  C        -18.5840   -1.0050   24.8320 C.2    92  VAL92       0.2260
     21  O        -17.9370   -0.9780   23.7810 O.2    92  VAL92      -0.2867
     22  CB       -18.1500    0.7420   26.5930 C.3    92  VAL92       0.0252
     23  CG1      -16.6910    0.5140   26.2040 C.3    92  VAL92       0.0019
     24  CG2      -18.4060    2.2130   26.9500 C.3    92  VAL92       0.0019
     25  N        -17.5100   -1.2510   20.9650 N.3    96  ILE96      -0.1245
     26  CA       -16.1340   -1.6190   20.6610 C.3    96  ILE96       0.1561
     27  C        -16.0030   -2.9520   19.9230 C.2    96  ILE96       0.2260
     28  O        -15.2680   -3.0430   18.9320 O.2    96  ILE96      -0.2867
     29  CB       -15.2320   -1.5870   21.9150 C.3    96  ILE96       0.0252
     30  CG1      -15.0210   -0.1310   22.3620 C.3    96  ILE96       0.0019
     31  CG2      -13.8740   -2.2390   21.6160 C.3    96  ILE96       0.0019
     32  CD1      -14.2960    0.0080   23.6880 C.3    96  ILE96       0.0001
     33  N        -14.6510   -3.6220   16.0620 N.3   100  VAL100     -0.1245
     34  CA       -13.5800   -4.5570   15.7530 C.3   100  VAL100      0.1561
     35  C        -14.0210   -5.6690   14.8040 C.2   100  VAL100      0.2260
     36  O        -13.3200   -5.9840   13.8400 O.2   100  VAL100     -0.2867
     37  CB       -12.9780   -5.1650   17.0370 C.3   100  VAL100      0.0252
     38  CG1      -12.1040   -6.3530   16.7080 C.3   100  VAL100      0.0019
     39  CG2      -12.1970   -4.1050   17.8120 C.3   100  VAL100      0.0019
     40  N        -12.6420   -6.5420   10.6060 N.3   104  VAL104     -0.1245
     41  CA       -12.0720   -7.7900   10.1000 C.3   104  VAL104      0.1561
     42  C        -13.0170   -8.6040    9.2090 C.2   104  VAL104      0.2260
     43  O        -12.5600   -9.2940    8.2990 O.2   104  VAL104     -0.2867
     44  CB       -11.5420   -8.7120   11.2350 C.3   104  VAL104      0.0252
     45  CG1      -10.8970   -7.8850   12.3440 C.3   104  VAL104      0.0019
     46  CG2      -12.6620   -9.5660   11.7940 C.3   104  VAL104      0.0019
     47  N        -13.1810  -20.3220   19.2470 N.3   152  PHE152     -0.1227
     48  CA       -13.1060  -19.2960   18.2110 C.3   152  PHE152      0.1736
     49  C        -11.8010  -19.3270   17.4080 C.2   152  PHE152      0.2595
     50  O        -11.7880  -18.9870   16.2250 O.2   152  PHE152     -0.2718
     51  CB       -13.4040  -17.8980   18.7710 C.3   152  PHE152      0.0547
     52  CG       -12.6790  -17.5790   20.0500 C.ar  152  PHE152     -0.0202
     53  CD1      -11.3880  -17.0750   20.0270 C.ar  152  PHE152     -0.0042
     54  CD2      -13.3220  -17.7020   21.2720 C.ar  152  PHE152     -0.0042
     55  CE1      -10.7340  -16.7490   21.2020 C.ar  152  PHE152     -0.0003
     56  CE2      -12.6720  -17.3770   22.4500 C.ar  152  PHE152     -0.0003
     57  CZ       -11.3780  -16.9000   22.4140 C.ar  152  PHE152     -0.0000
     58  N        -10.7110  -19.7410   18.0500 N.am  153  ILE153     -0.1980
     59  CA        -9.4310  -19.8750   17.3570 C.3   153  ILE153      0.1595
     60  C         -9.5150  -21.0700   16.4130 C.2   153  ILE153      0.2287
     61  O         -9.2180  -20.9620   15.2230 O.2   153  ILE153     -0.2864
     62  CB        -8.2650  -20.0890   18.3420 C.3   153  ILE153      0.0276
     63  CG1       -8.1530  -18.9050   19.3040 C.3   153  ILE153      0.0022
     64  CG2       -6.9580  -20.2810   17.5870 C.3   153  ILE153      0.0022
     65  CD1       -7.0140  -19.0290   20.2950 C.3   153  ILE153      0.0001
     66  N        -14.4410  -14.5590   16.2360 N.3   163  ASN163     -0.1225
     67  CA       -13.6720  -14.3910   17.4560 C.3   163  ASN163      0.1785
     68  C        -13.1130  -12.9920   17.6980 C.2   163  ASN163      0.2597
     69  O        -12.6430  -12.6980   18.7910 O.2   163  ASN163     -0.2718
     70  CB       -12.5850  -15.4620   17.5850 C.3   163  ASN163      0.1169
     71  CG       -12.0510  -15.9160   16.2470 C.2   163  ASN163      0.2627
     72  OD1      -12.8180  -16.1470   15.3070 O.2   163  ASN163     -0.2716
     73  ND2      -10.7440  -16.1390   16.1780 N.am  163  ASN163     -0.0877
     74  N        -13.1840  -12.1230   16.6920 N.am  164  ALA164     -0.1979
     75  CA       -12.7180  -10.7410   16.8600 C.3   164  ALA164      0.1597
     76  C        -13.5680  -10.0400   17.9160 C.2   164  ALA164      0.2287
     77  O        -13.0630   -9.2620   18.7250 O.2   164  ALA164     -0.2864
     78  CB       -12.7790   -9.9870   15.5370 C.3   164  ALA164      0.0319
     79  N        -12.6640  -11.7660   21.4330 N.3   167  ILE167     -0.1231
     80  CA       -11.3610  -11.3630   21.9350 C.3   167  ILE167      0.1692
     81  C        -11.3220   -9.8980   22.3430 C.2   167  ILE167      0.2592
     82  O        -10.8500   -9.5700   23.4280 O.2   167  ILE167     -0.2718
     83  CB       -10.2380  -11.6760   20.9330 C.3   167  ILE167      0.0266
     84  CG1      -10.1640  -13.1860   20.6910 C.3   167  ILE167      0.0019
     85  CG2       -8.9090  -11.1740   21.4560 C.3   167  ILE167      0.0020
     86  CD1       -8.9360  -13.6280   19.9190 C.3   167  ILE167      0.0001
     87  N        -11.8550   -9.0170   21.5020 N.am  168  SER168     -0.1952
     88  CA       -11.9010   -7.6050   21.8630 C.3   168  SER168      0.1924
     89  C        -12.8070   -7.4140   23.0770 C.2   168  SER168      0.2314
     90  O        -12.5840   -6.5230   23.8860 O.2   168  SER168     -0.2863
     91  CB       -12.3700   -6.7420   20.6910 C.3   168  SER168      0.2116
     92  OG       -13.6470   -7.1330   20.2490 O.3   168  SER168     -0.2180
     93  N        -10.8720   -8.3890   26.1700 N.3   171  ILE171     -0.1231
     94  CA        -9.8890   -7.3380   26.3850 C.3   171  ILE171      0.1692
     95  C        -10.5110   -6.1030   27.0180 C.2   171  ILE171      0.2591
     96  O         -9.9460   -5.5150   27.9430 O.2   171  ILE171     -0.2718
     97  CB        -9.1670   -6.9670   25.0680 C.3   171  ILE171      0.0266
     98  CG1       -8.2610   -8.1210   24.6260 C.3   171  ILE171      0.0019
     99  CG2       -8.3500   -5.6980   25.2440 C.3   171  ILE171      0.0020
    100  CD1       -7.4300   -7.8210   23.3770 C.3   171  ILE171      0.0001
    101  N        -11.6790   -5.7080   26.5240 N.am  172  VAL172     -0.1980
    102  CA       -12.3870   -4.5810   27.1110 C.3   172  VAL172      0.1595
    103  C        -12.6410   -4.8550   28.5890 C.2   172  VAL172      0.2287
    104  O        -12.4060   -3.9990   29.4370 O.2   172  VAL172     -0.2864
    105  CB       -13.7360   -4.3290   26.4160 C.3   172  VAL172      0.0276
    106  CG1      -14.6060   -3.3760   27.2530 C.3   172  VAL172      0.0022
    107  CG2      -13.5200   -3.7850   25.0050 C.3   172  VAL172      0.0022
    108  N         -9.2770   -4.9340   30.7840 N.3   175  ILE175     -0.1231
    109  CA        -8.7350   -3.5870   31.0010 C.3   175  ILE175      0.1692
    110  C         -9.6210   -2.7660   31.9370 C.2   175  ILE175      0.2592
    111  O         -9.1240   -2.1070   32.8500 O.2   175  ILE175     -0.2718
    112  CB        -8.5380   -2.8160   29.6710 C.3   175  ILE175      0.0266
    113  CG1       -7.4660   -3.4940   28.8130 C.3   175  ILE175      0.0019
    114  CG2       -8.1430   -1.3650   29.9410 C.3   175  ILE175      0.0020
    115  CD1       -7.2880   -2.8600   27.4240 C.3   175  ILE175      0.0001
    116  N        -10.9340   -2.8290   31.7250 N.am  176  TRP176     -0.1976
    117  CA       -11.8590   -2.0590   32.5430 C.3   176  TRP176      0.1640
    118  C        -11.7720   -2.5010   34.0030 C.2   176  TRP176      0.2290
    119  O        -11.6920   -1.6730   34.9060 O.2   176  TRP176     -0.2864
    120  CB       -13.2930   -2.2180   32.0370 C.3   176  TRP176      0.0576
    121  CG       -14.1850   -1.0710   32.4030 C.ar  176  TRP176      0.0006
    122  CD1      -14.2630   -0.4520   33.6170 C.ar  176  TRP176      0.0946
    123  CD2      -15.2430   -0.5170   31.6030 C.ar  176  TRP176      0.0152
    124  NE1      -15.2420    0.5140   33.5940 N.ar  176  TRP176     -0.2442
    125  CE2      -15.8680    0.4840   32.3740 C.ar  176  TRP176      0.0810
    126  CE3      -15.6970   -0.7470   30.2960 C.ar  176  TRP176      0.0012
    127  CZ2      -16.9170    1.2680   31.8780 C.ar  176  TRP176      0.0191
    128  CZ3      -16.7410    0.0310   29.8060 C.ar  176  TRP176      0.0001
    129  CH2      -17.3380    1.0260   30.5970 C.ar  176  TRP176      0.0015
    130  N         -8.5980   -1.3640   35.7540 N.3   179  ILE179     -0.1231
    131  CA        -8.7240    0.0430   36.0960 C.3   179  ILE179      0.1692
    132  C         -9.5890    0.2400   37.3470 C.2   179  ILE179      0.2592
    133  O         -9.1920    0.9410   38.2740 O.2   179  ILE179     -0.2718
    134  CB        -9.2820    0.8540   34.9170 C.3   179  ILE179      0.0266
    135  CG1       -8.2620    0.8760   33.7740 C.3   179  ILE179      0.0019
    136  CG2       -9.6210    2.2730   35.3580 C.3   179  ILE179      0.0020
    137  CD1       -8.7790    1.4890   32.4970 C.3   179  ILE179      0.0001
    138  N        -10.7530   -0.4070   37.3820 N.am  180  ASP180     -0.1974
    139  CA       -11.6440   -0.3230   38.5480 C.3   180  ASP180      0.1709
    140  C        -10.9910   -0.8910   39.8010 C.2   180  ASP180      0.2293
    141  O        -11.1850   -0.3770   40.9040 O.2   180  ASP180     -0.2864
    142  CB       -12.9630   -1.0430   38.2770 C.3   180  ASP180      0.1436
    143  CG       -13.8960   -0.2340   37.4180 C.2   180  ASP180      0.3671
    144  OD1      -13.6490    0.9850   37.2630 O.co2 180  ASP180     -0.2456
    145  OD2      -14.9030   -0.7980   36.9340 O.co2 180  ASP180     -0.2456
    146  N         -8.5960    1.8460   40.9150 N.3   183  LEU183     -0.1245
    147  CA        -9.3080    2.9880   41.4940 C.3   183  LEU183      0.1561
    148  C         -9.8500    2.6570   42.8790 C.2   183  LEU183      0.2260
    149  O         -9.9490    3.5250   43.7430 O.2   183  LEU183     -0.2867
    150  CB       -10.4390    3.4440   40.5690 C.3   183  LEU183      0.0270
    151  CG        -9.9920    3.9460   39.1920 C.3   183  LEU183      0.0019
    152  CD1      -11.1910    4.3640   38.3520 C.3   183  LEU183      0.0001
    153  CD2       -9.0060    5.1010   39.3420 C.3   183  LEU183      0.0001
@<TRIPOS>BOND
     1    43    42    2
     2    42    41    1
     3    41    40    1
     4    41    44    1
     5    44    46    1
     6    44    45    1
     7    36    35    2
     8    35    34    1
     9    61    60    2
    10    72    71    2
    11    78    75    1
    12    34    33    1
    13    34    37    1
    14    73    71   am
    15    50    49    2
    16    66    67    1
    17    71    70    1
    18    60    59    1
    19    74    75    1
    20    74    68   am
    21    38    37    1
    22    75    76    1
    23    37    39    1
    24    59    58    1
    25    59    62    1
    26    49    58   am
    27    49    48    1
    28    67    70    1
    29    67    68    1
    30    64    62    1
    31    68    69    2
    32    76    77    2
    33    48    51    1
    34    48    47    1
    35    62    63    1
    36    51    52    1
    37    28    27    2
    38    63    65    1
    39    86    84    1
    40    27    26    1
    41    53    52   ar
    42    53    55   ar
    43    52    54   ar
    44    92    91    1
    45    26    25    1
    46    26    29    1
    47    91    88    1
    48    84    83    1
    49    83    85    1
    50    83    80    1
    51    55    57   ar
    52    54    56   ar
    53    79    80    1
    54    87    88    1
    55    87    81   am
    56    31    29    1
    57    88    89    1
    58    29    30    1
    59    80    81    1
    60    81    82    2
    61    30    32    1
    62    57    56   ar
    63    89    90    2
    64   100    98    1
    65    21    20    2
    66    98    97    1
    67    20    19    1
    68   107   105    1
    69    97    99    1
    70    97    94    1
    71    19    18    1
    72    19    22    1
    73    93    94    1
    74    23    22    1
    75    94    95    1
    76   105   102    1
    77   105   106    1
    78   101    95   am
    79   101   102    1
    80    22    24    1
    81    95    96    2
    82   102   103    1
    83   115   113    1
    84   103   104    2
    85   113   112    1
    86    13    12    2
    87   112   114    1
    88   112   109    1
    89   128   126   ar
    90   128   129   ar
    91    12    11    1
    92   126   123   ar
    93   129   127   ar
    94    11    10    1
    95    11    14    1
    96   108   109    1
    97   109   110    1
    98   123   125   ar
    99   123   121   ar
   100   116   110   am
   101   116   117    1
   102    14    15    1
   103   127   125   ar
   104   110   111    2
   105   120   121    1
   106   120   117    1
   107    15    16    1
   108   125   124   ar
   109   121   122   ar
   110   137   135    1
   111   117   118    1
   112    16    17    1
   113   124   122   ar
   114     4     3    2
   115   135   134    1
   116   118   119    2
   117     3     2    1
   118   134   136    1
   119   134   131    1
   120     2     1    1
   121     2     5    1
   122   130   131    1
   123     7     6    1
   124     7     8    1
   125   131   132    1
   126     6     5    1
   127     9     8    1
   128   145   143   ar
   129   144   143   ar
   130   132   138   am
   131   132   133    2
   132   138   139    1
   133   143   142    1
   134   142   139    1
   135   152   151    1
   136   139   140    1
   137   151   153    1
   138   151   150    1
   139   140   141    2
   140   150   147    1
   141   146   147    1
   142   147   148    1
   143   148   149    2
