@<TRIPOS>MOLECULE
tmp/2nr9A04.pdb
 130 125 0 0 0
SMALL
GASTEIGER

@<TRIPOS>ATOM
      1  N        -31.9300   -8.9820   29.1010 N.3    13  THR13      -0.1218
      2  CA       -32.2590  -10.3690   28.8040 C.3    13  THR13       0.1862
      3  C        -33.6430  -10.4520   28.1560 C.2    13  THR13       0.2287
      4  O        -33.8060  -11.0400   27.0810 O.2    13  THR13      -0.2866
      5  CB       -32.2090  -11.2270   30.0710 C.3    13  THR13       0.1770
      6  OG1      -30.9160  -11.0890   30.6840 O.3    13  THR13      -0.2211
      7  CG2      -32.4660  -12.6900   29.7420 C.3    13  THR13       0.0375
      8  N        -34.8860  -11.7230   24.3330 N.3    17  VAL17      -0.1245
      9  CA       -35.9200  -12.7350   24.1480 C.3    17  VAL17       0.1561
     10  C        -37.0640  -12.2050   23.2840 C.2    17  VAL17       0.2260
     11  O        -37.5460  -12.9010   22.3940 O.2    17  VAL17      -0.2867
     12  CB       -36.5070  -13.2260   25.5000 C.3    17  VAL17       0.0252
     13  CG1      -37.6330  -14.2410   25.2550 C.3    17  VAL17       0.0019
     14  CG2      -35.4220  -13.8320   26.3700 C.3    17  VAL17       0.0019
     15  N        -35.9480  -11.8170   19.6270 N.3    20  TYR20      -0.1227
     16  CA       -35.8010  -13.1400   19.0040 C.3    20  TYR20       0.1736
     17  C        -37.1740  -13.7130   18.6680 C.2    20  TYR20       0.2595
     18  O        -37.4290  -14.1040   17.5320 O.2    20  TYR20      -0.2718
     19  CB       -35.0330  -14.1000   19.9150 C.3    20  TYR20       0.0548
     20  CG       -34.6600  -15.4250   19.2610 C.ar   20  TYR20      -0.0200
     21  CD1      -33.6520  -15.4860   18.3070 C.ar   20  TYR20      -0.0009
     22  CD2      -35.2570  -16.6160   19.6590 C.ar   20  TYR20      -0.0009
     23  CE1      -33.2760  -16.6890   17.7350 C.ar   20  TYR20       0.0417
     24  CE2      -34.8850  -17.8350   19.0920 C.ar   20  TYR20       0.0417
     25  CZ       -33.8930  -17.8600   18.1280 C.ar   20  TYR20       0.1957
     26  OH       -33.5100  -19.0550   17.5560 O.3    20  TYR20      -0.2866
     27  N        -38.0700  -13.7340   19.6530 N.am   21  ILE21      -0.1980
     28  CA       -39.4260  -14.2130   19.4150 C.3    21  ILE21       0.1595
     29  C        -40.0100  -13.4980   18.2020 C.2    21  ILE21       0.2287
     30  O        -40.5870  -14.1290   17.3240 O.2    21  ILE21      -0.2864
     31  CB       -40.3390  -14.0000   20.6360 C.3    21  ILE21       0.0276
     32  CG1      -39.8320  -14.8110   21.8320 C.3    21  ILE21       0.0022
     33  CG2      -41.7700  -14.4320   20.3110 C.3    21  ILE21       0.0022
     34  CD1      -39.9680  -16.3230   21.6550 C.3    21  ILE21       0.0001
     35  N        -31.4450  -20.9280   18.4450 N.3    60  ASN60      -0.1225
     36  CA       -31.9120  -21.1960   19.8050 C.3    60  ASN60       0.1785
     37  C        -30.7590  -21.4220   20.7890 C.2    60  ASN60       0.2597
     38  O        -30.8510  -21.0490   21.9570 O.2    60  ASN60      -0.2718
     39  CB       -32.8740  -22.3950   19.8250 C.3    60  ASN60       0.1169
     40  CG       -34.1490  -22.1430   19.0260 C.2    60  ASN60       0.2627
     41  OD1      -34.8600  -23.0800   18.6540 O.2    60  ASN60      -0.2716
     42  ND2      -34.4440  -20.8800   18.7680 N.am   60  ASN60      -0.0877
     43  N        -29.6880  -22.0570   20.3190 N.am   61  LEU61      -0.1980
     44  CA       -28.5060  -22.2840   21.1520 C.3    61  LEU61       0.1596
     45  C        -27.7140  -20.9920   21.2820 C.2    61  LEU61       0.2287
     46  O        -27.1580  -20.6820   22.3420 O.2    61  LEU61      -0.2864
     47  CB       -27.6190  -23.3850   20.5580 C.3    61  LEU61       0.0297
     48  CG       -28.1310  -24.8220   20.6640 C.3    61  LEU61       0.0022
     49  CD1      -27.2460  -25.7780   19.8710 C.3    61  LEU61       0.0001
     50  CD2      -28.2140  -25.2500   22.1220 C.3    61  LEU61       0.0001
     51  N        -28.7880  -17.8960   21.3650 N.3    63  ILE63      -0.1231
     52  CA       -29.4040  -17.0550   22.3760 C.3    63  ILE63       0.1692
     53  C        -29.4520  -17.7310   23.7490 C.2    63  ILE63       0.2591
     54  O        -29.3020  -17.0710   24.7710 O.2    63  ILE63      -0.2718
     55  CB       -30.8170  -16.5810   21.9380 C.3    63  ILE63       0.0266
     56  CG1      -31.3420  -15.5060   22.8760 C.3    63  ILE63       0.0019
     57  CG2      -31.7810  -17.7520   21.8410 C.3    63  ILE63       0.0020
     58  CD1      -32.6600  -14.9210   22.4390 C.3    63  ILE63       0.0001
     59  N        -29.5810  -19.0540   23.7630 N.am   64  LEU64      -0.1980
     60  CA       -29.6400  -19.7980   25.0230 C.3    64  LEU64       0.1596
     61  C        -28.3300  -19.6990   25.8060 C.2    64  LEU64       0.2287
     62  O        -28.3350  -19.4920   27.0210 O.2    64  LEU64      -0.2864
     63  CB       -29.9910  -21.2670   24.7780 C.3    64  LEU64       0.0297
     64  CG       -30.0980  -22.1170   26.0460 C.3    64  LEU64       0.0022
     65  CD1      -31.1590  -21.5500   26.9880 C.3    64  LEU64       0.0001
     66  CD2      -30.3970  -23.5720   25.7050 C.3    64  LEU64       0.0001
     67  N        -27.5960  -15.6740   26.7070 N.3    67  LEU67      -0.1231
     68  CA       -28.4220  -15.1900   27.8180 C.3    67  LEU67       0.1693
     69  C        -28.1380  -15.8620   29.1580 C.2    67  LEU67       0.2592
     70  O        -28.2650  -15.2280   30.2050 O.2    67  LEU67      -0.2718
     71  CB       -29.9170  -15.2600   27.4830 C.3    67  LEU67       0.0284
     72  CG       -30.3970  -14.2050   26.4830 C.3    67  LEU67       0.0019
     73  CD1      -31.9120  -14.0710   26.5180 C.3    67  LEU67       0.0001
     74  CD2      -29.7540  -12.8690   26.8020 C.3    67  LEU67       0.0001
     75  N        -27.8320  -17.1590   29.1330 N.am   68  SER68      -0.1952
     76  CA       -27.4890  -17.8840   30.3620 C.3    68  SER68       0.1924
     77  C        -26.2760  -17.2330   31.0200 C.2    68  SER68       0.2314
     78  O        -26.3220  -16.8410   32.1840 O.2    68  SER68      -0.2863
     79  CB       -27.1710  -19.3510   30.0610 C.3    68  SER68       0.2116
     80  OG       -28.2660  -20.0090   29.4440 O.3    68  SER68      -0.2180
     81  N        -26.9410  -13.5330   31.9930 N.3    71  PHE71      -0.1227
     82  CA       -27.8420  -13.3840   33.1210 C.3    71  PHE71       0.1736
     83  C        -27.0970  -13.6360   34.4270 C.2    71  PHE71       0.2595
     84  O        -27.1750  -12.8390   35.3610 O.2    71  PHE71      -0.2718
     85  CB       -29.0540  -14.3100   32.9930 C.3    71  PHE71       0.0547
     86  CG       -30.1270  -14.0430   34.0120 C.ar   71  PHE71      -0.0202
     87  CD1      -31.0420  -13.0160   33.8220 C.ar   71  PHE71      -0.0042
     88  CD2      -30.2150  -14.8070   35.1640 C.ar   71  PHE71      -0.0042
     89  CE1      -32.0230  -12.7500   34.7720 C.ar   71  PHE71      -0.0003
     90  CE2      -31.1930  -14.5480   36.1130 C.ar   71  PHE71      -0.0003
     91  CZ       -32.1000  -13.5190   35.9130 C.ar   71  PHE71      -0.0000
     92  N        -26.3170  -14.7120   34.4540 N.am   72  ILE72      -0.1980
     93  CA       -25.5320  -15.0620   35.6240 C.3    72  ILE72       0.1595
     94  C        -24.4430  -14.0420   35.9580 C.2    72  ILE72       0.2287
     95  O        -24.4200  -13.5000   37.0580 O.2    72  ILE72      -0.2864
     96  CB       -24.8790  -16.4520   35.4750 C.3    72  ILE72       0.0276
     97  CG1      -25.9470  -17.5480   35.4840 C.3    72  ILE72       0.0022
     98  CG2      -23.8720  -16.6860   36.5950 C.3    72  ILE72       0.0022
     99  CD1      -25.3740  -18.9690   35.4550 C.3    72  ILE72       0.0001
    100  N        -18.5550  -21.5590   39.8130 N.3   138  GLU138     -0.1245
    101  CA       -19.2440  -22.7790   40.2300 C.3   138  GLU138      0.1567
    102  C        -18.2980  -23.9640   40.1150 C.2   138  GLU138      0.2260
    103  O        -18.3710  -24.9140   40.8950 O.2   138  GLU138     -0.2867
    104  CB       -20.4870  -23.0330   39.3720 C.3   138  GLU138      0.0388
    105  CG       -21.5920  -22.0070   39.5330 C.3   138  GLU138      0.1160
    106  CD       -22.8670  -22.4120   38.8180 C.2   138  GLU138      0.3649
    107  OE1      -23.7860  -21.5730   38.7170 O.co2 138  GLU138     -0.2457
    108  OE2      -22.9490  -23.5690   38.3540 O.co2 138  GLU138     -0.2457
    109  N        -17.5850  -24.9900   36.7480 N.3   140  PHE140     -0.1227
    110  CA       -17.7620  -25.2820   35.3320 C.3   140  PHE140      0.1736
    111  C        -17.6130  -24.0020   34.5120 C.2   140  PHE140      0.2595
    112  O        -17.0530  -24.0170   33.4160 O.2   140  PHE140     -0.2718
    113  CB       -19.1390  -25.9010   35.0850 C.3   140  PHE140      0.0547
    114  CG       -19.5390  -26.9220   36.1140 C.ar  140  PHE140     -0.0202
    115  CD1      -20.4530  -26.6010   37.1060 C.ar  140  PHE140     -0.0042
    116  CD2      -18.9700  -28.1850   36.1190 C.ar  140  PHE140     -0.0042
    117  CE1      -20.8180  -27.5310   38.0600 C.ar  140  PHE140     -0.0003
    118  CE2      -19.3280  -29.1170   37.0750 C.ar  140  PHE140     -0.0003
    119  CZ       -20.2520  -28.7880   38.0470 C.ar  140  PHE140     -0.0000
    120  N        -18.1260  -22.8960   35.0490 N.am  141  PHE141     -0.1976
    121  CA       -18.0330  -21.6000   34.3800 C.3   141  PHE141      0.1639
    122  C        -16.6130  -21.0420   34.4530 C.2   141  PHE141      0.2290
    123  O        -16.3140  -20.0010   33.8660 O.2   141  PHE141     -0.2864
    124  CB       -19.0320  -20.6010   34.9740 C.3   141  PHE141      0.0560
    125  CG       -20.4730  -20.9670   34.7390 C.ar  141  PHE141     -0.0200
    126  CD1      -21.2370  -21.5200   35.7530 C.ar  141  PHE141     -0.0042
    127  CD2      -21.0600  -20.7650   33.5010 C.ar  141  PHE141     -0.0042
    128  CE1      -22.5630  -21.8520   35.5390 C.ar  141  PHE141     -0.0003
    129  CE2      -22.3830  -21.0990   33.2810 C.ar  141  PHE141     -0.0003
    130  CZ       -23.1340  -21.6430   34.3000 C.ar  141  PHE141     -0.0000
@<TRIPOS>BOND
     1    30    29    2
     2    18    17    2
     3    26    25    1
     4    23    25   ar
     5    23    21   ar
     6    25    24   ar
     7    29    28    1
     8    21    20   ar
     9    35    36    1
    10    41    40    2
    11    17    16    1
    12    17    27   am
    13    42    40   am
    14    16    15    1
    15    16    19    1
    16    40    39    1
    17    24    22   ar
    18    20    22   ar
    19    20    19    1
    20    28    27    1
    21    28    31    1
    22    36    39    1
    23    36    37    1
    24    49    48    1
    25    33    31    1
    26    43    37   am
    27    43    44    1
    28    47    48    1
    29    47    44    1
    30    31    32    1
    31    48    50    1
    32    37    38    2
    33    44    45    1
    34    45    46    2
    35    51    52    1
    36    34    32    1
    37    57    55    1
    38    55    52    1
    39    55    56    1
    40    52    53    1
    41    11    10    2
    42    58    56    1
    43    10     9    1
    44    53    59   am
    45    53    54    2
    46    59    60    1
    47     9     8    1
    48     9    12    1
    49    63    60    1
    50    63    64    1
    51    60    61    1
    52    13    12    1
    53    12    14    1
    54    66    64    1
    55    61    62    2
    56    64    65    1
    57    72    73    1
    58    72    74    1
    59    72    71    1
    60    67    68    1
    61     4     3    2
    62    71    68    1
    63    68    69    1
    64     3     2    1
    65     2     1    1
    66     2     5    1
    67    75    69   am
    68    75    76    1
    69    69    70    2
    70    80    79    1
    71     7     5    1
    72    79    76    1
    73     5     6    1
    74    76    77    1
    75    77    78    2
    76    81    82    1
    77    85    82    1
    78    85    86    1
    79    82    83    1
    80   129   127   ar
    81   129   130   ar
    82   112   111    2
    83   127   125   ar
    84    87    86   ar
    85    87    89   ar
    86   123   122    2
    87    86    88   ar
    88   130   128   ar
    89   121   122    1
    90   121   124    1
    91   121   120    1
    92    83    92   am
    93    83    84    2
    94    92    93    1
    95   111   120   am
    96   111   110    1
    97   125   124    1
    98   125   126   ar
    99    89    91   ar
   100   113   110    1
   101   113   114    1
   102    88    90   ar
   103   110   109    1
   104    99    97    1
   105    96    97    1
   106    96    93    1
   107    96    98    1
   108   128   126   ar
   109    93    94    1
   110    91    90   ar
   111    94    95    2
   112   114   116   ar
   113   114   115   ar
   114   116   118   ar
   115   118   119   ar
   116   115   117   ar
   117   119   117   ar
   118   108   106   ar
   119   107   106   ar
   120   106   105    1
   121   104   105    1
   122   104   101    1
   123   100   101    1
   124   102   101    1
   125   102   103    2
