@<TRIPOS>MOLECULE
tmp/2nruB00.pdb
 165 156 0 0 0
SMALL
GASTEIGER

@<TRIPOS>ATOM
      1  N         -0.8960   -9.1120   24.1980 N.3    30  MET30      -0.1230
      2  CA         0.3790   -8.9370   24.8940 C.3    30  MET30       0.1702
      3  C          0.9950  -10.2780   25.1870 C.2    30  MET30       0.2592
      4  O          2.1490  -10.5020   24.8650 O.2    30  MET30      -0.2718
      5  CB         0.1840   -8.1650   26.1990 C.3    30  MET30       0.0401
      6  CG        -0.2640   -6.7690   25.9800 C.3    30  MET30       0.0596
      7  SD         0.2300   -5.7250   27.3180 S.3    30  MET30      -0.1393
      8  CE        -0.9790   -6.0140   28.5790 C.3    30  MET30       0.0692
      9  N          0.2160  -11.1560   25.8120 N.am   31  GLY31      -0.1957
     10  CA         0.6270  -12.5260   26.0850 C.3    31  GLY31       0.1869
     11  C         -0.5830  -13.4310   25.9910 C.2    31  GLY31       0.2309
     12  O         -1.7180  -12.9480   26.1010 O.2    31  GLY31      -0.2863
     13  N         -3.9380  -11.9280   27.4310 N.3    38  VAL38      -0.1245
     14  CA        -3.7890  -10.6060   27.9960 C.3    38  VAL38       0.1561
     15  C         -3.6930   -9.5860   26.8610 C.2    38  VAL38       0.2260
     16  O         -2.8620   -9.7090   25.9380 O.2    38  VAL38      -0.2867
     17  CB        -2.5450  -10.4770   28.9460 C.3    38  VAL38       0.0252
     18  CG1       -2.6060   -9.1870   29.7390 C.3    38  VAL38       0.0019
     19  CG2       -2.4400  -11.6540   29.9060 C.3    38  VAL38       0.0019
     20  N         -3.9750   -3.5910   31.5490 N.3    49  ALA49      -0.1245
     21  CA        -3.9560   -4.9730   31.0940 C.3    49  ALA49       0.1562
     22  C         -5.3500   -5.5470   31.2850 C.2    49  ALA49       0.2260
     23  O         -5.8490   -5.5810   32.4110 O.2    49  ALA49      -0.2867
     24  CB        -2.9630   -5.7780   31.9530 C.3    49  ALA49       0.0290
     25  N         -7.1570   -9.0750   30.9850 N.3    51  LYS51      -0.1245
     26  CA        -7.1390  -10.5120   30.8310 C.3    51  LYS51       0.1561
     27  C         -8.5530  -11.0950   30.5500 C.2    51  LYS51       0.2260
     28  O         -9.4330  -11.1360   31.4280 O.2    51  LYS51      -0.2867
     29  CB        -6.4780  -11.1870   32.0480 C.3    51  LYS51       0.0271
     30  CG        -6.4050  -12.7250   31.9210 C.3    51  LYS51       0.0035
     31  CD        -6.2370  -13.3850   33.2630 C.3    51  LYS51       0.0206
     32  CE        -4.8710  -13.1800   33.8180 C.3    51  LYS51       0.1093
     33  NZ        -4.8660  -13.6680   35.2480 N.3    51  LYS51      -0.1314
     34  N          0.5260   -7.8030   41.9740 N.3    84  VAL84      -0.1245
     35  CA        -0.1930   -7.0240   40.9690 C.3    84  VAL84       0.1561
     36  C         -1.4380   -6.3550   41.5510 C.2    84  VAL84       0.2260
     37  O         -1.9270   -6.7690   42.6000 O.2    84  VAL84      -0.2867
     38  CB        -0.5040   -7.8730   39.7440 C.3    84  VAL84       0.0252
     39  CG1        0.8650   -8.2500   38.9320 C.3    84  VAL84       0.0019
     40  CG2       -1.3350   -9.1320   40.1200 C.3    84  VAL84       0.0019
     41  N         -6.3180   -4.9180   35.1310 N.3   100  TYR100     -0.1227
     42  CA        -5.2060   -4.6560   36.0540 C.3   100  TYR100      0.1736
     43  C         -4.4350   -3.4110   35.6960 C.2   100  TYR100      0.2595
     44  O         -4.3920   -3.0330   34.5560 O.2   100  TYR100     -0.2718
     45  CB        -4.1820   -5.8150   36.0140 C.3   100  TYR100      0.0548
     46  CG        -4.6920   -7.1660   36.4120 C.ar  100  TYR100     -0.0200
     47  CD1       -4.5760   -7.6110   37.7280 C.ar  100  TYR100     -0.0009
     48  CD2       -5.2680   -8.0170   35.4620 C.ar  100  TYR100     -0.0009
     49  CE1       -5.0400   -8.8570   38.0760 C.ar  100  TYR100      0.0417
     50  CE2       -5.7240   -9.3000   35.7900 C.ar  100  TYR100      0.0417
     51  CZ        -5.6100   -9.6990   37.0980 C.ar  100  TYR100      0.1957
     52  OH        -6.0740  -10.9430   37.4120 O.3   100  TYR100     -0.2866
     53  N         -3.7590   -2.8130   36.6580 N.am  101  VAL101     -0.1966
     54  CA        -2.7070   -1.8210   36.3880 C.3   101  VAL101      0.1727
     55  C         -1.5970   -2.4750   35.5070 C.2   101  VAL101      0.2616
     56  O         -1.0450   -3.5590   35.8820 O.2   101  VAL101     -0.2715
     57  CB        -2.0710   -1.3030   37.7150 C.3   101  VAL101      0.0290
     58  CG1       -0.9490   -0.3400   37.4350 C.3   101  VAL101      0.0023
     59  CG2       -3.0950   -0.6060   38.6540 C.3   101  VAL101      0.0023
     60  N         -1.2850   -1.8460   34.3690 N.am  102  TYR102     -0.1960
     61  CA        -0.2980   -2.3710   33.3970 C.3   102  TYR102      0.1771
     62  C          1.1210   -2.4640   33.9360 C.2   102  TYR102      0.2619
     63  O          1.6350   -1.5380   34.5260 O.2   102  TYR102     -0.2715
     64  CB        -0.2450   -1.4330   32.1990 C.3   102  TYR102      0.0574
     65  CG         0.7530   -1.7370   31.0830 C.ar  102  TYR102     -0.0198
     66  CD1        1.6160   -0.7580   30.6000 C.ar  102  TYR102     -0.0009
     67  CD2        0.7150   -2.9480   30.4180 C.ar  102  TYR102     -0.0009
     68  CE1        2.4810   -1.0180   29.4600 C.ar  102  TYR102      0.0417
     69  CE2        1.5590   -3.2060   29.3230 C.ar  102  TYR102      0.0417
     70  CZ         2.4330   -2.2500   28.8760 C.ar  102  TYR102      0.1957
     71  OH         3.2100   -2.6040   27.8170 O.3   102  TYR102     -0.2866
     72  N          1.7720   -3.5730   33.6420 N.am  103  MET103     -0.1964
     73  CA         3.1510   -3.8140   34.0370 C.3   103  MET103      0.1722
     74  C          3.9300   -3.7120   32.7110 C.2   103  MET103      0.2458
     75  O          3.9460   -4.6850   31.9600 O.2   103  MET103     -0.2730
     76  CB         3.2190   -5.2360   34.6350 C.3   103  MET103      0.0427
     77  CG         2.3840   -5.3560   35.9140 C.3   103  MET103      0.0599
     78  SD         3.2360   -4.4170   37.2200 S.3   103  MET103     -0.1393
     79  CE         4.5350   -5.5070   37.5050 C.3   103  MET103      0.0692
     80  N          4.6180   -2.5690   32.4650 N.am  104  PRO104     -0.2716
     81  CA         5.2700   -2.3290   31.1720 C.3   104  PRO104      0.1536
     82  C          6.3510   -3.2940   30.7420 C.2   104  PRO104      0.2599
     83  O          6.7030   -3.3120   29.5660 O.2   104  PRO104     -0.2715
     84  CB         5.9450   -0.9500   31.3440 C.3   104  PRO104      0.0310
     85  CG         5.2840   -0.3380   32.5200 C.3   104  PRO104      0.0237
     86  CD         4.8770   -1.4710   33.4080 C.3   104  PRO104      0.0939
     87  N          6.9470   -4.0100   31.6830 N.am  105  ASN105     -0.1959
     88  CA         8.0880   -4.8520   31.3730 C.3   105  ASN105      0.1819
     89  C          7.7390   -6.3770   31.3560 C.2   105  ASN105      0.2622
     90  O          8.6420   -7.2230   31.3930 O.2   105  ASN105     -0.2715
     91  CB         9.2930   -4.4920   32.2870 C.3   105  ASN105      0.1195
     92  CG        10.0020   -3.2130   31.8520 C.2   105  ASN105      0.2630
     93  OD1       10.5930   -3.1850   30.7870 O.2   105  ASN105     -0.2716
     94  ND2        9.9020   -2.1670   32.6290 N.am  105  ASN105     -0.0877
     95  N          6.4460   -6.7080   31.3330 N.am  106  GLY106     -0.1940
     96  CA         5.9900   -8.1250   31.1940 C.3   106  GLY106      0.2014
     97  C          6.5140   -9.1060   32.2460 C.2   106  GLY106      0.2639
     98  O          6.6920   -8.7650   33.3990 O.2   106  GLY106     -0.2714
     99  N          6.7960  -10.3320   31.8520 N.am  107  SER107     -0.1949
    100  CA         7.1510  -11.2810   32.8520 C.3   107  SER107      0.1924
    101  C          8.6570  -11.4210   33.0830 C.2   107  SER107      0.2314
    102  O          9.5100  -11.1460   32.1760 O.2   107  SER107     -0.2863
    103  CB         6.4310  -12.6300   32.5620 C.3   107  SER107      0.2116
    104  OG         7.0110  -13.3030   31.4700 O.3   107  SER107     -0.2180
    105  N         10.0570  -13.8550   30.2740 N.3   110  ASP110     -0.1225
    106  CA        10.2900  -13.3100   28.9700 C.3   110  ASP110      0.1805
    107  C         11.4440  -12.3470   28.9650 C.2   110  ASP110      0.2597
    108  O         12.1170  -12.1740   27.9130 O.2   110  ASP110     -0.2718
    109  CB         9.0140  -12.6740   28.4110 C.3   110  ASP110      0.1424
    110  CG         7.9530  -13.7460   27.9710 C.2   110  ASP110      0.3668
    111  OD1        6.8110  -13.3690   27.6280 O.co2 110  ASP110     -0.2456
    112  OD2        8.2580  -14.9730   27.9530 O.co2 110  ASP110     -0.2456
    113  N         11.6230  -11.6460   30.0570 N.am  111  ARG111     -0.1979
    114  CA        12.8460  -10.8090   30.2520 C.3   111  ARG111      0.1597
    115  C         14.1460  -11.6360   30.3450 C.2   111  ARG111      0.2287
    116  O         15.1770  -11.2780   29.7190 O.2   111  ARG111     -0.2864
    117  CB        12.6880   -9.8040   31.3950 C.3   111  ARG111      0.0334
    118  CG        11.5270   -8.7560   31.0850 C.3   111  ARG111      0.0492
    119  CD        11.7840   -7.8300   29.9050 C.3   111  ARG111      0.2205
    120  NE        11.5780   -8.4380   28.5610 N.pl3 111  ARG111     -0.0865
    121  CZ        10.3890   -8.8120   28.0960 C.cat 111  ARG111      0.5346
    122  NH1       10.2610   -9.3610   26.8860 N.pl3 111  ARG111      0.1354
    123  NH2        9.2990   -8.6530   28.8440 N.pl3 111  ARG111      0.1354
    124  N         11.3780  -10.5490   22.2800 N.3   116  ASP116     -0.1239
    125  CA        11.1610   -9.3210   21.5280 C.3   116  ASP116      0.1674
    126  C         12.3260   -8.3580   21.5860 C.2   116  ASP116      0.2266
    127  O         12.1170   -7.1140   21.5330 O.2   116  ASP116     -0.2867
    128  CB         9.8960   -8.6080   22.0170 C.3   116  ASP116      0.1410
    129  CG         8.6300   -9.3840   21.7110 C.2   116  ASP116      0.3668
    130  OD1        8.6750  -10.3350   20.8980 O.co2 116  ASP116     -0.2456
    131  OD2        7.5930   -9.0440   22.3100 O.co2 116  ASP116     -0.2456
    132  N         14.5240   -7.4100   24.0160 N.3   118  THR118     -0.1218
    133  CA        14.8480   -6.5720   25.1690 C.3   118  THR118      0.1862
    134  C         16.2480   -6.9660   25.6800 C.2   118  THR118      0.2287
    135  O         16.6750   -8.1510   25.5260 O.2   118  THR118     -0.2866
    136  CB        13.7540   -6.7610   26.4190 C.3   118  THR118      0.1770
    137  OG1       13.6270   -8.1530   26.7380 O.3   118  THR118     -0.2211
    138  CG2       12.4400   -6.3220   26.0130 C.3   118  THR118      0.0375
    139  N          6.9860  -17.0090   35.0370 N.3   153  ALA153     -0.1245
    140  CA         5.8610  -16.4220   34.1990 C.3   153  ALA153      0.1562
    141  C          4.7850  -15.5880   34.9390 C.2   153  ALA153      0.2260
    142  O          4.0820  -14.7740   34.3150 O.2   153  ALA153     -0.2867
    143  CB         5.1600  -17.4730   33.4270 C.3   153  ALA153      0.0290
    144  N          5.5470  -10.5390   37.3670 N.3   156  LEU156     -0.1245
    145  CA         5.5500   -9.3440   36.4220 C.3   156  LEU156      0.1561
    146  C          6.4960   -8.2130   36.8300 C.2   156  LEU156      0.2260
    147  O          6.9020   -8.1970   37.9600 O.2   156  LEU156     -0.2867
    148  CB         4.1460   -8.8600   36.1740 C.3   156  LEU156      0.0270
    149  CG         3.1540  -10.0070   35.8050 C.3   156  LEU156      0.0019
    150  CD1        1.8950   -9.4960   35.0950 C.3   156  LEU156      0.0001
    151  CD2        3.7090  -11.2220   35.0970 C.3   156  LEU156      0.0001
    152  N          1.6230  -12.3940   40.3660 N.3   166  SER166     -0.1202
    153  CA         0.3200  -12.3760   39.7330 C.3   166  SER166      0.2020
    154  C         -0.2350  -13.7940   39.6410 C.2   166  SER166      0.2618
    155  O          0.4450  -14.7370   40.0340 O.2   166  SER166     -0.2717
    156  CB         0.4190  -11.8530   38.3370 C.3   166  SER166      0.2103
    157  OG         1.1900  -12.7060   37.5410 O.3   166  SER166     -0.2182
    158  N         -1.4570  -13.8870   39.1210 N.am  167  ASP167     -0.1973
    159  CA        -2.2280  -15.1140   38.8210 C.3   167  ASP167      0.1709
    160  C         -2.5440  -15.9070   40.1030 C.2   167  ASP167      0.2293
    161  O         -1.9020  -16.8800   40.4090 O.2   167  ASP167     -0.2864
    162  CB        -1.5460  -16.0010   37.8000 C.3   167  ASP167      0.1436
    163  CG        -2.5450  -17.0530   37.1440 C.2   167  ASP167      0.3671
    164  OD1       -3.7110  -17.2450   37.6000 O.co2 167  ASP167     -0.2456
    165  OD2       -2.1490  -17.7140   36.1770 O.co2 167  ASP167     -0.2456
@<TRIPOS>BOND
     1   130   129   ar
     2   125   126    1
     3   125   128    1
     4   125   124    1
     5   127   126    2
     6   129   128    1
     7   129   131   ar
     8   132   133    1
     9     1     2    1
    10     4     3    2
    11     2     3    1
    12     2     5    1
    13   133   134    1
    14   133   136    1
    15     3     9   am
    16   135   134    2
    17     9    10    1
    18    16    15    2
    19     6     5    1
    20     6     7    1
    21    11    10    1
    22    11    12    2
    23   138   136    1
    24   136   137    1
    25    15    14    1
    26   122   121    1
    27     7     8    1
    28    13    14    1
    29   111   110   ar
    30    71    70    1
    31   108   107    2
    32   112   110   ar
    33   110   109    1
    34    14    17    1
    35   121   120    2
    36   121   123    1
    37   109   106    1
    38   120   119    1
    39    70    69   ar
    40    70    68   ar
    41    17    18    1
    42    17    19    1
    43   107   106    1
    44   107   113   am
    45   106   105    1
    46    69    67   ar
    47    68    66   ar
    48    83    82    2
    49   116   115    2
    50   119   118    1
    51   113   114    1
    52   114   115    1
    53   114   117    1
    54    67    65   ar
    55    27    26    1
    56    27    28    2
    57    66    65   ar
    58    82    81    1
    59    82    87   am
    60    93    92    2
    61    26    25    1
    62    26    29    1
    63    65    64    1
    64   118   117    1
    65    21    22    1
    66    21    20    1
    67    21    24    1
    68    81    84    1
    69    81    80    1
    70    96    95    1
    71    96    97    1
    72    22    23    2
    73    95    89   am
    74    84    85    1
    75    89    88    1
    76    89    90    2
    77    88    87    1
    78    88    91    1
    79   104   103    1
    80    92    91    1
    81    92    94   am
    82    99    97   am
    83    99   100    1
    84    30    29    1
    85    30    31    1
    86    75    74    2
    87   102   101    2
    88    64    61    1
    89    97    98    2
    90    80    74   am
    91    80    86    1
    92    85    86    1
    93   103   100    1
    94    74    73    1
    95   100   101    1
    96    31    32    1
    97    61    62    1
    98    61    60    1
    99   143   140    1
   100    72    62   am
   101    72    73    1
   102    32    33    1
   103    62    63    2
   104    73    76    1
   105   140   141    1
   106   140   139    1
   107   142   141    2
   108    60    55   am
   109    44    43    2
   110    76    77    1
   111   150   149    1
   112   151   149    1
   113    41    42    1
   114    48    50   ar
   115    48    46   ar
   116    55    56    2
   117    55    54    1
   118    43    42    1
   119    43    53   am
   120    50    51   ar
   121   149   148    1
   122    77    78    1
   123    45    42    1
   124    45    46    1
   125   148   145    1
   126   165   163   ar
   127    54    53    1
   128    54    57    1
   129    46    47   ar
   130   145   146    1
   131   145   144    1
   132   146   147    2
   133    51    52    1
   134    51    49   ar
   135   163   164   ar
   136   163   162    1
   137    78    79    1
   138    58    57    1
   139   157   156    1
   140    57    59    1
   141    47    49   ar
   142   162   159    1
   143   156   153    1
   144   159   158    1
   145   159   160    1
   146    39    38    1
   147   158   154   am
   148   154   153    1
   149   154   155    2
   150   153   152    1
   151    38    40    1
   152    38    35    1
   153   160   161    2
   154    35    36    1
   155    35    34    1
   156    36    37    2
