@<TRIPOS>MOLECULE
tmp/2nryA00.pdb
 170 160 0 0 0
SMALL
GASTEIGER

@<TRIPOS>ATOM
      1  N         81.0490   27.0280   69.9280 N.3    29  MET29      -0.1230
      2  CA        80.0160   26.9120   68.9080 C.3    29  MET29       0.1702
      3  C         79.3030   28.2560   68.6200 C.2    29  MET29       0.2593
      4  O         78.7540   28.4320   67.5400 O.2    29  MET29      -0.2718
      5  CB        78.9860   25.8290   69.2750 C.3    29  MET29       0.0401
      6  CG        79.6240   24.4150   69.1910 C.3    29  MET29       0.0596
      7  SD        78.4950   23.0040   69.2600 S.3    29  MET29      -0.1393
      8  CE        77.5970   23.3210   70.7850 C.3    29  MET29       0.0692
      9  N         79.3220   29.1740   69.5770 N.am   30  GLY30      -0.1942
     10  CA        78.6070   30.4380   69.4660 C.3    30  GLY30       0.2014
     11  C         78.5930   31.1840   70.7970 C.2    30  GLY30       0.2639
     12  O         79.0690   30.6490   71.8090 O.2    30  GLY30      -0.2714
     13  N         78.0640   32.4180   70.7680 N.am   31  GLU31      -0.1963
     14  CA        77.7200   33.2070   71.9630 C.3    31  GLU31       0.1733
     15  C         76.2710   33.7090   71.9530 C.2    31  GLU31       0.2616
     16  O         75.7260   34.0280   70.9130 O.2    31  GLU31      -0.2715
     17  CB        78.6950   34.3800   72.2140 C.3    31  GLU31       0.0429
     18  CG        79.2590   35.0410   70.9770 C.3    31  GLU31       0.1163
     19  CD        80.7570   35.4240   71.1060 C.2    31  GLU31       0.3649
     20  OE1       81.2480   35.6640   72.2510 O.co2  31  GLU31      -0.2457
     21  OE2       81.4430   35.4720   70.0400 O.co2  31  GLU31      -0.2457
     22  N         75.6370   33.7270   73.1240 N.am   32  GLY32      -0.1955
     23  CA        74.2370   34.1030   73.2470 C.3    32  GLY32       0.1869
     24  C         73.6540   33.5240   74.5260 C.2    32  GLY32       0.2309
     25  O         74.3010   32.7230   75.2070 O.2    32  GLY32      -0.2863
     26  N         78.8330   29.2720   74.1910 N.3    37  VAL37      -0.1245
     27  CA        78.4250   27.8720   74.0620 C.3    37  VAL37       0.1561
     28  C         79.5830   27.0600   73.5100 C.2    37  VAL37       0.2260
     29  O         80.1750   27.4450   72.4970 O.2    37  VAL37      -0.2867
     30  CB        77.1560   27.7270   73.1930 C.3    37  VAL37       0.0252
     31  CG1       76.7310   26.2500   72.9830 C.3    37  VAL37       0.0019
     32  CG2       76.0580   28.5030   73.8060 C.3    37  VAL37       0.0019
     33  N         75.9740   20.4390   74.3760 N.3    48  ALA48      -0.1245
     34  CA        76.2640   21.8750   74.2780 C.3    48  ALA48       0.1562
     35  C         76.3250   22.4540   75.6970 C.2    48  ALA48       0.2260
     36  O         75.3890   22.3080   76.4730 O.2    48  ALA48      -0.2867
     37  CB        75.2250   22.5450   73.4910 C.3    48  ALA48       0.0290
     38  N         76.6550   25.8390   77.8320 N.3    50  LYS50      -0.1245
     39  CA        76.6400   27.3050   77.8890 C.3    50  LYS50       0.1561
     40  C         77.2180   27.7550   79.2130 C.2    50  LYS50       0.2260
     41  O         76.6570   27.4580   80.2780 O.2    50  LYS50      -0.2867
     42  CB        75.2160   27.8650   77.7480 C.3    50  LYS50       0.0271
     43  CG        75.1830   29.4050   77.3710 C.3    50  LYS50       0.0035
     44  CD        74.1670   30.1490   78.2120 C.3    50  LYS50       0.0206
     45  CE        72.8470   30.4060   77.4920 C.3    50  LYS50       0.1093
     46  NZ        71.6660   30.5180   78.4290 N.3    50  LYS50      -0.1314
     47  N         65.9750   30.5930   83.7480 N.3    67  GLU67      -0.1245
     48  CA        66.1170   29.6860   82.6250 C.3    67  GLU67       0.1567
     49  C         65.8890   28.2180   82.9940 C.2    67  GLU67       0.2260
     50  O         65.1410   27.5310   82.3170 O.2    67  GLU67      -0.2867
     51  CB        67.4420   29.8760   81.8790 C.3    67  GLU67       0.0388
     52  CG        67.5470   28.8990   80.7260 C.3    67  GLU67       0.1160
     53  CD        68.7440   29.0790   79.8470 C.2    67  GLU67       0.3649
     54  OE1       69.6520   29.8670   80.1970 O.co2  67  GLU67      -0.2457
     55  OE2       68.7700   28.3930   78.7870 O.co2  67  GLU67      -0.2457
     56  N         64.6420   23.0590   72.2800 N.3    80  VAL80      -0.1245
     57  CA        65.8720   22.4980   72.8250 C.3    80  VAL80       0.1561
     58  C         65.6760   21.9810   74.2890 C.2    80  VAL80       0.2260
     59  O         65.0770   22.6510   75.1240 O.2    80  VAL80      -0.2867
     60  CB        67.0900   23.4990   72.8130 C.3    80  VAL80       0.0252
     61  CG1       68.3660   22.8010   73.3410 C.3    80  VAL80       0.0019
     62  CG2       67.3850   23.9810   71.4130 C.3    80  VAL80       0.0019
     63  N         72.8670   21.2850   77.4170 N.3    96  TYR96      -0.1227
     64  CA        71.6910   21.0370   76.5750 C.3    96  TYR96       0.1736
     65  C         71.9500   19.8400   75.6710 C.2    96  TYR96       0.2595
     66  O         73.0850   19.5090   75.3850 O.2    96  TYR96      -0.2718
     67  CB        71.4510   22.2300   75.6270 C.3    96  TYR96       0.0548
     68  CG        71.2380   23.5630   76.2940 C.ar   96  TYR96      -0.0200
     69  CD1       69.9560   24.0270   76.5780 C.ar   96  TYR96      -0.0009
     70  CD2       72.3160   24.3580   76.6170 C.ar   96  TYR96      -0.0009
     71  CE1       69.7650   25.3090   77.2110 C.ar   96  TYR96       0.0417
     72  CE2       72.1390   25.6160   77.2150 C.ar   96  TYR96       0.0417
     73  CZ        70.8800   26.0480   77.5190 C.ar   96  TYR96       0.1957
     74  OH        70.7700   27.2870   78.0640 O.3    96  TYR96      -0.2866
     75  N         70.8880   19.2740   75.1460 N.am   97  VAL97      -0.1966
     76  CA        71.0220   18.3060   74.0800 C.3    97  VAL97       0.1727
     77  C         71.7260   18.9900   72.8700 C.2    97  VAL97       0.2616
     78  O         71.4400   20.1520   72.5190 O.2    97  VAL97      -0.2715
     79  CB        69.6490   17.7000   73.7370 C.3    97  VAL97       0.0290
     80  CG1       69.6550   16.8680   72.4200 C.3    97  VAL97       0.0023
     81  CG2       69.1440   16.8940   74.9140 C.3    97  VAL97       0.0023
     82  N         72.6930   18.2840   72.3060 N.am   98  TYR98      -0.1960
     83  CA        73.4300   18.7220   71.1090 C.3    98  TYR98       0.1771
     84  C         72.6520   18.5670   69.8410 C.2    98  TYR98       0.2619
     85  O         72.0210   17.4980   69.5910 O.2    98  TYR98      -0.2715
     86  CB        74.7660   17.9550   70.9740 C.3    98  TYR98       0.0574
     87  CG        75.5720   18.3030   69.7440 C.ar   98  TYR98      -0.0198
     88  CD1       75.9140   17.3150   68.7910 C.ar   98  TYR98      -0.0009
     89  CD2       76.0020   19.6180   69.5150 C.ar   98  TYR98      -0.0009
     90  CE1       76.6820   17.6270   67.6650 C.ar   98  TYR98       0.0417
     91  CE2       76.7700   19.9570   68.3500 C.ar   98  TYR98       0.0417
     92  CZ        77.0870   18.9440   67.4380 C.ar   98  TYR98       0.1957
     93  OH        77.8590   19.2460   66.3300 O.3    98  TYR98      -0.2866
     94  N         72.6880   19.6180   68.9930 N.am   99  MET99      -0.1964
     95  CA        71.8820   19.6260   67.7610 C.3    99  MET99       0.1722
     96  C         72.8760   19.6020   66.5740 C.2    99  MET99       0.2458
     97  O         73.4190   20.6220   66.1840 O.2    99  MET99      -0.2730
     98  CB        70.9650   20.8860   67.7170 C.3    99  MET99       0.0427
     99  CG        69.8710   20.9630   68.8540 C.3    99  MET99       0.0599
    100  SD        68.9580   19.4320   69.0990 S.3    99  MET99      -0.1393
    101  CE        68.1150   19.6520   70.6960 C.3    99  MET99       0.0692
    102  N         73.1190   18.4100   65.9920 N.am  100  PRO100     -0.2727
    103  CA        74.2220   18.2770   65.0320 C.3   100  PRO100      0.1402
    104  C         74.0830   19.0840   63.7440 C.2   100  PRO100      0.2269
    105  O         75.0750   19.3430   63.1060 O.2   100  PRO100     -0.2865
    106  CB        74.1920   16.7750   64.6500 C.3   100  PRO100      0.0296
    107  CG        73.2990   16.1430   65.5710 C.3   100  PRO100      0.0237
    108  CD        72.4190   17.1360   66.2170 C.3   100  PRO100      0.0939
    109  N         73.1380   22.1970   63.5260 N.3   102  GLY102     -0.1210
    110  CA        73.3700   23.6520   63.7310 C.3   102  GLY102      0.1956
    111  C         72.1110   24.4690   63.5340 C.2   102  GLY102      0.2612
    112  O         70.9910   23.9830   63.7530 O.2   102  GLY102     -0.2717
    113  N         72.2760   25.7420   63.1930 N.am  103  SER103     -0.1952
    114  CA        71.1410   26.6490   63.1260 C.3   103  SER103      0.1924
    115  C         70.5080   26.6930   61.7570 C.2   103  SER103      0.2314
    116  O         71.1560   26.4110   60.7460 O.2   103  SER103     -0.2863
    117  CB        71.5210   28.0380   63.6240 C.3   103  SER103      0.2116
    118  OG        72.3440   28.7180   62.7040 O.3   103  SER103     -0.2180
    119  N         72.5780   29.2190   59.5080 N.3   106  ASP106     -0.1239
    120  CA        73.7160   28.5500   58.9260 C.3   106  ASP106      0.1674
    121  C         73.3390   27.5670   57.7990 C.2   106  ASP106      0.2266
    122  O         74.0550   27.4390   56.8530 O.2   106  ASP106     -0.2867
    123  CB        74.4850   27.7720   60.0010 C.3   106  ASP106      0.1410
    124  CG        75.1030   28.6860   61.0980 C.2   106  ASP106      0.3668
    125  OD1       75.4390   28.1000   62.1380 O.co2 106  ASP106     -0.2456
    126  OD2       75.3110   29.9230   60.9250 O.co2 106  ASP106     -0.2456
    127  N         64.4700   34.1170   65.7930 N.3   147  LYS147     -0.1245
    128  CA        65.2710   34.3630   64.6200 C.3   147  LYS147      0.1561
    129  C         65.8460   33.0270   64.1320 C.2   147  LYS147      0.2260
    130  O         65.8880   32.1070   64.8920 O.2   147  LYS147     -0.2867
    131  CB        66.3890   35.3250   64.9210 C.3   147  LYS147      0.0271
    132  CG        67.2940   34.9310   66.0560 C.3   147  LYS147      0.0035
    133  CD        68.2330   36.1040   66.2540 C.3   147  LYS147      0.0206
    134  CE        69.3680   35.7160   67.1590 C.3   147  LYS147      0.1093
    135  NZ        70.3440   36.8150   67.1900 N.3   147  LYS147     -0.1314
    136  N         68.8420   32.0530   63.5100 N.3   149  ALA149     -0.1231
    137  CA        70.0280   31.6530   64.2530 C.3   149  ALA149      0.1694
    138  C         69.7060   30.9780   65.6240 C.2   149  ALA149      0.2592
    139  O         70.5740   30.3940   66.2590 O.2   149  ALA149     -0.2718
    140  CB        70.9630   32.8560   64.4180 C.3   149  ALA149      0.0304
    141  N         68.4630   31.0600   66.0640 N.am  150  ASN150     -0.1974
    142  CA        68.0250   30.5030   67.3390 C.3   150  ASN150      0.1688
    143  C         67.1180   29.2780   67.1170 C.2   150  ASN150      0.2292
    144  O         66.5550   28.7690   68.0690 O.2   150  ASN150     -0.2864
    145  CB        67.2300   31.5600   68.1680 C.3   150  ASN150      0.1181
    146  CG        68.1070   32.3890   69.0860 C.2   150  ASN150      0.2629
    147  OD1       69.3010   32.1230   69.3180 O.2   150  ASN150     -0.2716
    148  ND2       67.5190   33.4590   69.5950 N.am  150  ASN150     -0.0877
    149  N         67.3620   25.6660   66.0600 N.3   152  LEU152     -0.1245
    150  CA        68.4280   24.6740   65.8480 C.3   152  LEU152      0.1561
    151  C         67.8760   23.4670   65.1220 C.2   152  LEU152      0.2260
    152  O         66.6540   23.3530   64.9760 O.2   152  LEU152     -0.2867
    153  CB        69.1290   24.2950   67.1450 C.3   152  LEU152      0.0270
    154  CG        69.9860   25.4170   67.7770 C.3   152  LEU152      0.0019
    155  CD1       70.5380   24.9420   69.1360 C.3   152  LEU152      0.0001
    156  CD2       71.1570   25.9540   66.9430 C.3   152  LEU152      0.0001
    157  N         65.6250   27.4740   70.4960 N.3   162  SER162     -0.1202
    158  CA        66.5530   27.6090   71.5940 C.3   162  SER162      0.2020
    159  C         66.5540   29.0230   72.1660 C.2   162  SER162      0.2618
    160  O         65.9140   29.9290   71.6280 O.2   162  SER162     -0.2717
    161  CB        67.9680   27.2970   71.1370 C.3   162  SER162      0.2103
    162  OG        68.2410   28.1380   70.0140 O.3   162  SER162     -0.2182
    163  N         67.3450   29.1760   73.2120 N.am  163  ASP163     -0.1973
    164  CA        67.6030   30.4270   73.8910 C.3   163  ASP163      0.1709
    165  C         66.3590   31.1330   74.4740 C.2   163  ASP163      0.2293
    166  O         65.9020   32.1420   73.9660 O.2   163  ASP163     -0.2864
    167  CB        68.3940   31.3720   72.9890 C.3   163  ASP163      0.1436
    168  CG        69.0720   32.4660   73.7770 C.2   163  ASP163      0.3671
    169  OD1       68.8700   32.5390   74.9980 O.co2 163  ASP163     -0.2456
    170  OD2       69.7980   33.2640   73.1970 O.co2 163  ASP163     -0.2456
@<TRIPOS>BOND
     1   122   121    2
     2   121   120    1
     3   120   119    1
     4   120   123    1
     5   123   124    1
     6   116   115    2
     7   126   124   ar
     8   124   125   ar
     9   115   114    1
    10   118   117    1
    11   105   104    2
    12   114   113    1
    13   114   117    1
    14   113   111   am
    15   136   137    1
    16   109   110    1
    17   111   110    1
    18   111   112    2
    19   104   103    1
    20   129   128    1
    21   129   130    2
    22   137   140    1
    23   137   138    1
    24   128   131    1
    25   128   127    1
    26   106   103    1
    27   106   107    1
    28   131   132    1
    29   152   151    2
    30   103   102    1
    31   151   150    1
    32   107   108    1
    33   138   141   am
    34   138   139    2
    35   150   149    1
    36   150   153    1
    37   102   108    1
    38   102    96   am
    39   132   133    1
    40   141   142    1
    41    97    96    2
    42   133   134    1
    43    93    92    1
    44    96    95    1
    45   156   154    1
    46   143   142    1
    47   143   144    2
    48   153   154    1
    49   134   135    1
    50   142   145    1
    51    92    90   ar
    52    92    91   ar
    53     4     3    2
    54    90    88   ar
    55    98    95    1
    56    98    99    1
    57    95    94    1
    58   154   155    1
    59   145   146    1
    60    91    89   ar
    61     3     2    1
    62     3     9   am
    63    88    87   ar
    64    99   100    1
    65     2     5    1
    66     2     1    1
    67    94    84   am
    68   146   147    2
    69   146   148   am
    70   100   101    1
    71     6     7    1
    72     6     5    1
    73     7     8    1
    74    10     9    1
    75    10    11    1
    76    89    87   ar
    77    85    84    2
    78    87    86    1
    79    84    83    1
    80   162   161    1
    81    21    19   ar
    82   157   158    1
    83    13    11   am
    84    13    14    1
    85    11    12    2
    86    16    15    2
    87    86    83    1
    88    18    19    1
    89    18    17    1
    90    19    20   ar
    91    83    82    1
    92   161   158    1
    93    62    60    1
    94   158   159    1
    95   160   159    2
    96    15    14    1
    97    15    22   am
    98    14    17    1
    99   159   163   am
   100    56    57    1
   101    82    77   am
   102    80    79    1
   103    29    28    2
   104    78    77    2
   105    60    57    1
   106    60    61    1
   107    57    58    1
   108    77    76    1
   109    31    30    1
   110   167   168    1
   111   167   164    1
   112    22    23    1
   113    30    32    1
   114    30    27    1
   115   170   168   ar
   116   163   164    1
   117    23    24    1
   118    37    34    1
   119    28    27    1
   120    79    76    1
   121    79    81    1
   122   168   169   ar
   123   164   165    1
   124   166   165    2
   125    27    26    1
   126    76    75    1
   127    34    33    1
   128    34    35    1
   129    58    59    2
   130    24    25    2
   131    75    65   am
   132    66    65    2
   133    67    68    1
   134    67    64    1
   135    65    64    1
   136    35    36    2
   137    68    69   ar
   138    68    70   ar
   139    64    63    1
   140    69    71   ar
   141    70    72   ar
   142    71    73   ar
   143    72    73   ar
   144    43    42    1
   145    43    44    1
   146    45    44    1
   147    45    46    1
   148    73    74    1
   149    42    39    1
   150    38    39    1
   151    39    40    1
   152    55    53   ar
   153    40    41    2
   154    53    54   ar
   155    53    52    1
   156    52    51    1
   157    51    48    1
   158    50    49    2
   159    48    49    1
   160    48    47    1
