@<TRIPOS>MOLECULE
tmp/2ns1B00.pdb
 133 129 0 0 0
SMALL
GASTEIGER

@<TRIPOS>ATOM
      1  N         10.8720   -1.0380  126.6390 N.3     8  ILE8       -0.1245
      2  CA        10.8740   -0.2750  125.3930 C.3     8  ILE8        0.1561
      3  C         12.2770   -0.3820  124.8170 C.2     8  ILE8        0.2260
      4  O         13.2400    0.0550  125.4410 O.2     8  ILE8       -0.2867
      5  CB        10.4990    1.1780  125.6280 C.3     8  ILE8        0.0252
      6  CG1        9.0720    1.2520  126.1790 C.3     8  ILE8        0.0019
      7  CG2       10.6080    1.9760  124.3360 C.3     8  ILE8        0.0019
      8  CD1        8.7600    2.5670  126.8710 C.3     8  ILE8        0.0001
      9  N          5.6480    1.0420  118.8980 N.3    34  VAL34      -0.1231
     10  CA         5.4650    2.3740  119.4920 C.3    34  VAL34       0.1692
     11  C          6.4610    3.3390  118.8520 C.2    34  VAL34       0.2592
     12  O          7.3240    2.9050  118.0990 O.2    34  VAL34      -0.2718
     13  CB         5.6160    2.3540  121.0360 C.3    34  VAL34       0.0266
     14  CG1        4.5110    1.4740  121.6800 C.3    34  VAL34       0.0020
     15  CG2        6.9870    1.8670  121.4530 C.3    34  VAL34       0.0020
     16  N          6.2950    4.6340  119.1150 N.am   35  LYS35      -0.1966
     17  CA         7.1860    5.6600  118.6120 C.3    35  LYS35       0.1728
     18  C          7.8330    6.3060  119.8270 C.2    35  LYS35       0.2617
     19  O          7.1510    6.6750  120.8050 O.2    35  LYS35      -0.2715
     20  CB         6.4570    6.7140  117.7680 C.3    35  LYS35       0.0311
     21  CG         5.3980    6.1800  116.7910 C.3    35  LYS35       0.0038
     22  CD         5.9510    5.1630  115.7770 C.3    35  LYS35       0.0206
     23  CE         4.8480    4.5870  114.8430 C.3    35  LYS35       0.1093
     24  NZ         3.8460    3.6930  115.5400 N.3    35  LYS35      -0.1314
     25  N          9.1470    6.4380  119.7740 N.am   36  GLY36      -0.1940
     26  CA         9.9220    6.9540  120.9100 C.3    36  GLY36       0.2014
     27  C         10.5640    8.3120  120.6530 C.2    36  GLY36       0.2639
     28  O         11.0260    8.6140  119.5390 O.2    36  GLY36      -0.2714
     29  N         10.5560    9.1390  121.6900 N.am   37  PHE37      -0.1959
     30  CA        11.2230   10.4400  121.7120 C.3    37  PHE37       0.1771
     31  C         12.1160   10.4410  122.9580 C.2    37  PHE37       0.2620
     32  O         11.6950    9.9840  124.0140 O.2    37  PHE37      -0.2715
     33  CB        10.1970   11.5750  121.8850 C.3    37  PHE37       0.0574
     34  CG         9.1560   11.6660  120.7840 C.ar   37  PHE37      -0.0200
     35  CD1        9.2680   12.6260  119.7810 C.ar   37  PHE37      -0.0042
     36  CD2        8.0450   10.8130  120.7690 C.ar   37  PHE37      -0.0042
     37  CE1        8.3070   12.7180  118.7740 C.ar   37  PHE37      -0.0003
     38  CE2        7.0820   10.9060  119.7580 C.ar   37  PHE37      -0.0003
     39  CZ         7.2180   11.8610  118.7640 C.ar   37  PHE37      -0.0000
     40  N         13.3400   10.9400  122.8500 N.am   38  GLY38      -0.1940
     41  CA        14.1790   11.1040  124.0390 C.3    38  GLY38       0.2014
     42  C         15.5310   11.6990  123.6920 C.2    38  GLY38       0.2639
     43  O         15.6250   12.5820  122.8480 O.2    38  GLY38      -0.2714
     44  N         16.5760   11.2000  124.3440 N.am   39  ARG39      -0.1963
     45  CA        17.9440   11.6260  124.0540 C.3    39  ARG39       0.1729
     46  C         18.2880   11.3090  122.6020 C.2    39  ARG39       0.2616
     47  O         18.8480   12.1380  121.8890 O.2    39  ARG39      -0.2715
     48  CB        18.9260   10.9430  125.0190 C.3    39  ARG39       0.0348
     49  CG        18.6740   11.3260  126.4750 C.3    39  ARG39       0.0492
     50  CD        19.6180   10.6440  127.4560 C.3    39  ARG39       0.2205
     51  NE        19.4820   11.2150  128.8000 N.pl3  39  ARG39      -0.0865
     52  CZ        20.2070   10.8570  129.8640 C.cat  39  ARG39       0.5346
     53  NH1       21.1450    9.9140  129.7740 N.pl3  39  ARG39       0.1354
     54  NH2       19.9880   11.4520  131.0350 N.pl3  39  ARG39       0.1354
     55  N         17.9520   10.0980  122.1750 N.am   40  GLN40      -0.1977
     56  CA        18.0440    9.7260  120.7760 C.3    40  GLN40       0.1601
     57  C         16.8590   10.3580  120.0070 C.2    40  GLN40       0.2287
     58  O         15.6670   10.1550  120.3500 O.2    40  GLN40      -0.2864
     59  CB        18.0300    8.2050  120.6380 C.3    40  GLN40       0.0394
     60  CG        18.6280    7.6690  119.3340 C.3    40  GLN40       0.0908
     61  CD        18.0930    6.2930  118.9510 C.2    40  GLN40       0.2608
     62  OE1       17.1170    5.8040  119.5270 O.2    40  GLN40      -0.2717
     63  NE2       18.7270    5.6700  117.9670 N.am   40  GLN40      -0.0878
     64  N         11.3820    8.0370  116.8300 N.3    57  LEU57      -0.1245
     65  CA        12.0140    6.7800  116.4080 C.3    57  LEU57       0.1561
     66  C         11.1080    5.5660  116.6690 C.2    57  LEU57       0.2260
     67  O         10.4910    5.4880  117.7260 O.2    57  LEU57      -0.2867
     68  CB        13.3260    6.5720  117.1530 C.3    57  LEU57       0.0270
     69  CG        14.4310    7.5560  116.7810 C.3    57  LEU57       0.0019
     70  CD1       15.4540    7.6040  117.8900 C.3    57  LEU57       0.0001
     71  CD2       15.0680    7.1900  115.4380 C.3    57  LEU57       0.0001
     72  N         10.1080    2.1020  118.0300 N.3    59  LYS59      -0.1245
     73  CA        10.5620    1.2640  119.1170 C.3    59  LYS59       0.1561
     74  C          9.5770    0.1370  119.2430 C.2    59  LYS59       0.2260
     75  O          8.4960    0.1810  118.6610 O.2    59  LYS59      -0.2867
     76  CB        10.6060    2.0320  120.4500 C.3    59  LYS59       0.0271
     77  CG        11.5370    3.2260  120.4620 C.3    59  LYS59       0.0035
     78  CD        13.0080    2.8520  120.3900 C.3    59  LYS59       0.0206
     79  CE        13.8810    4.1180  120.4370 C.3    59  LYS59       0.1093
     80  NZ        15.3320    3.8340  120.3010 N.3    59  LYS59      -0.1314
     81  N         24.7090    2.2330  122.8490 N.3    86  LYS86      -0.1231
     82  CA        24.4120    3.4890  122.1610 C.3    86  LYS86       0.1693
     83  C         23.1170    4.0990  122.7000 C.2    86  LYS86       0.2592
     84  O         22.2270    3.3790  123.1790 O.2    86  LYS86      -0.2718
     85  CB        24.2990    3.2650  120.6530 C.3    86  LYS86       0.0285
     86  CG        25.5520    2.6590  120.0330 C.3    86  LYS86       0.0035
     87  CD        25.5380    2.7160  118.5050 C.3    86  LYS86       0.0206
     88  CE        25.7830    4.1270  117.9800 C.3    86  LYS86       0.1093
     89  NZ        26.2230    4.1270  116.5440 N.3    86  LYS86      -0.1314
     90  N         23.0080    5.4230  122.6140 N.am   87  ILE87      -0.1966
     91  CA        21.8450    6.1230  123.1590 C.3    87  ILE87       0.1727
     92  C         20.5960    5.5900  122.4620 C.2    87  ILE87       0.2617
     93  O         20.6060    5.3730  121.2480 O.2    87  ILE87      -0.2715
     94  CB        21.9080    7.6530  122.9650 C.3    87  ILE87       0.0290
     95  CG1       23.2020    8.2400  123.5350 C.3    87  ILE87       0.0022
     96  CG2       20.7060    8.3270  123.6310 C.3    87  ILE87       0.0023
     97  CD1       23.3690    8.0540  125.0290 C.3    87  ILE87       0.0001
     98  N         19.5420    5.3480  123.2400 N.am   88  GLY88      -0.1940
     99  CA        18.2560    4.9070  122.6890 C.3    88  GLY88       0.2014
    100  C         17.8960    3.4710  122.9950 C.2    88  GLY88       0.2639
    101  O         16.8530    3.0040  122.5400 O.2    88  GLY88      -0.2714
    102  N         18.7720    2.7570  123.7140 N.am   89  ASP89      -0.1957
    103  CA        18.5330    1.3580  124.1010 C.3    89  ASP89       0.1840
    104  C         17.2330    1.1300  124.8760 C.2    89  ASP89       0.2623
    105  O         16.6430    0.0640  124.7940 O.2    89  ASP89      -0.2715
    106  CB        19.6920    0.8250  124.9390 C.3    89  ASP89       0.1450
    107  CG        20.8890    0.4470  124.1020 C.2    89  ASP89       0.3671
    108  OD1       20.8870    0.7080  122.8730 O.co2  89  ASP89      -0.2456
    109  OD2       21.8300   -0.1270  124.6840 O.co2  89  ASP89      -0.2456
    110  N         16.8160    2.1260  125.6440 N.am   90  GLY90      -0.1940
    111  CA        15.4800    2.1460  126.2120 C.3    90  GLY90       0.2014
    112  C         15.4060    1.8780  127.6920 C.2    90  GLY90       0.2638
    113  O         16.4040    1.9700  128.4230 O.2    90  GLY90      -0.2714
    114  N         14.2000    1.5170  128.1230 N.am   91  LYS91      -0.1977
    115  CA        13.8490    1.5420  129.5140 C.3    91  LYS91       0.1596
    116  C         13.1600    0.2650  129.9070 C.2    91  LYS91       0.2287
    117  O         12.5040   -0.3860  129.0800 O.2    91  LYS91      -0.2864
    118  CB        12.8710    2.6870  129.8170 C.3    91  LYS91       0.0298
    119  CG        13.1820    4.0250  129.1900 C.3    91  LYS91       0.0038
    120  CD        14.3360    4.7210  129.8510 C.3    91  LYS91       0.0206
    121  CE        14.5270    6.0970  129.2140 C.3    91  LYS91       0.1093
    122  NZ        15.8520    6.6730  129.4880 N.3    91  LYS91      -0.1314
    123  N         10.2260   -0.6200  132.8060 N.3    93  PHE93      -0.1241
    124  CA         9.2700   -0.1640  133.8150 C.3    93  PHE93       0.1605
    125  C          8.6570   -1.3810  134.5130 C.2    93  PHE93       0.2264
    126  O          8.4110   -2.4100  133.8850 O.2    93  PHE93      -0.2867
    127  CB         8.1210    0.6380  133.2030 C.3    93  PHE93       0.0534
    128  CG         8.5650    1.7680  132.3240 C.ar   93  PHE93      -0.0203
    129  CD1        9.5170    2.6710  132.7550 C.ar   93  PHE93      -0.0042
    130  CD2        8.0040    1.9540  131.0870 C.ar   93  PHE93      -0.0042
    131  CE1        9.9300    3.7200  131.9440 C.ar   93  PHE93      -0.0003
    132  CE2        8.4160    3.0050  130.2770 C.ar   93  PHE93      -0.0003
    133  CZ         9.3840    3.8840  130.7190 C.ar   93  PHE93      -0.0000
@<TRIPOS>BOND
     1    23    24    1
     2    23    22    1
     3    71    69    1
     4    22    21    1
     5    65    66    1
     6    65    64    1
     7    65    68    1
     8    89    88    1
     9    66    67    2
    10    69    68    1
    11    69    70    1
    12    21    20    1
    13    20    17    1
    14    63    61   am
    15    88    87    1
    16    72    73    1
    17    12    11    2
    18    87    86    1
    19    17    16    1
    20    17    18    1
    21    75    74    2
    22    39    37   ar
    23    39    38   ar
    24    37    35   ar
    25    11    16   am
    26    11    10    1
    27     9    10    1
    28    61    60    1
    29    61    62    2
    30    73    74    1
    31    73    76    1
    32    60    59    1
    33    10    13    1
    34    28    27    2
    35    38    36   ar
    36    25    18   am
    37    25    26    1
    38    35    34   ar
    39    18    19    2
    40    57    58    2
    41    57    56    1
    42    86    85    1
    43    80    79    1
    44    78    79    1
    45    78    77    1
    46    76    77    1
    47    59    56    1
    48    27    26    1
    49    27    29   am
    50    85    82    1
    51    36    34   ar
    52    56    55    1
    53    34    33    1
    54    13    15    1
    55    13    14    1
    56    93    92    2
    57    29    30    1
    58    30    33    1
    59    30    31    1
    60    47    46    2
    61    82    83    1
    62    82    81    1
    63    55    46   am
    64    92    91    1
    65    92    98   am
    66   101   100    2
    67    46    45    1
    68    90    83   am
    69    90    91    1
    70    99   100    1
    71    99    98    1
    72    83    84    2
    73    43    42    2
    74    40    31   am
    75    40    41    1
    76   108   107   ar
    77    31    32    2
    78    94    91    1
    79    94    95    1
    80    94    96    1
    81   100   102   am
    82    95    97    1
    83    42    41    1
    84    42    44   am
    85   102   103    1
    86    45    44    1
    87    45    48    1
    88   103   104    1
    89   103   106    1
    90   107   109   ar
    91   107   106    1
    92     7     5    1
    93   105   104    2
    94     3     2    1
    95     3     4    2
    96   104   110   am
    97    48    49    1
    98     2     5    1
    99     2     1    1
   100     5     6    1
   101   110   111    1
   102     6     8    1
   103   111   112    1
   104    49    50    1
   105    50    51    1
   106   112   114   am
   107   112   113    2
   108   114   115    1
   109    51    52    2
   110   117   116    2
   111   119   118    1
   112   119   120    1
   113   121   122    1
   114   121   120    1
   115   115   118    1
   116   115   116    1
   117    53    52    1
   118    52    54    1
   119   132   133   ar
   120   132   130   ar
   121   133   131   ar
   122   130   128   ar
   123   131   129   ar
   124   128   129   ar
   125   128   127    1
   126   123   124    1
   127   127   124    1
   128   124   125    1
   129   126   125    2
