@<TRIPOS>MOLECULE
tmp/2ns1A07.pdb
 98 95 0 0 0
SMALL
GASTEIGER

@<TRIPOS>ATOM
      1  N        -17.3170   22.4950   70.5270 N.3    64  LEU64      -0.1245
      2  CA       -16.9030   23.8590   70.8300 C.3    64  LEU64       0.1561
      3  C        -15.3880   24.0700   70.8470 C.2    64  LEU64       0.2260
      4  O        -14.9150   25.1930   70.6380 O.2    64  LEU64      -0.2867
      5  CB       -17.5120   24.2990   72.1440 C.3    64  LEU64       0.0270
      6  CG       -19.0140   24.5200   71.9970 C.3    64  LEU64       0.0019
      7  CD1      -19.6370   24.4730   73.3500 C.3    64  LEU64       0.0001
      8  CD2      -19.2550   25.8660   71.2630 C.3    64  LEU64       0.0001
      9  N        -15.1190   24.5040   63.7280 N.3    68  GLU68      -0.1231
     10  CA       -14.7670   25.8350   63.2020 C.3    68  GLU68       0.1699
     11  C        -15.7630   26.8540   63.7270 C.2    68  GLU68       0.2593
     12  O        -16.9690   26.6260   63.7000 O.2    68  GLU68      -0.2718
     13  CB       -14.7300   25.8860   61.6670 C.3    68  GLU68       0.0402
     14  CG       -14.2570   27.2590   61.1430 C.3    68  GLU68       0.1161
     15  CD       -14.0000   27.3020   59.6530 C.2    68  GLU68       0.3649
     16  OE1      -14.9020   26.9230   58.8760 O.co2  68  GLU68      -0.2457
     17  OE2      -12.9000   27.7510   59.2560 O.co2  68  GLU68      -0.2457
     18  N        -15.2470   27.9690   64.2180 N.am   69  GLY69      -0.1942
     19  CA       -16.0800   29.0260   64.7520 C.3    69  GLY69       0.2014
     20  C        -15.3060   30.3160   64.6290 C.2    69  GLY69       0.2638
     21  O        -14.8860   30.6790   63.5340 O.2    69  GLY69      -0.2714
     22  N        -15.0990   30.9860   65.7520 N.am   70  ASN70      -0.1972
     23  CA       -14.3400   32.2370   65.7950 C.3    70  ASN70       0.1688
     24  C        -12.9580   32.0470   66.4330 C.2    70  ASN70       0.2292
     25  O        -12.4730   30.9130   66.5750 O.2    70  ASN70      -0.2864
     26  CB       -15.1690   33.3130   66.5160 C.3    70  ASN70       0.1181
     27  CG       -15.5820   32.9040   67.9080 C.2    70  ASN70       0.2629
     28  OD1      -14.7410   32.6100   68.7640 O.2    70  ASN70      -0.2716
     29  ND2      -16.8900   32.8970   68.1530 N.am   70  ASN70      -0.0877
     30  N        -14.1200   30.1760   70.2600 N.3    73  PHE73      -0.1227
     31  CA       -14.7730   28.8620   70.3800 C.3    73  PHE73       0.1736
     32  C        -15.2390   28.4040   69.0380 C.2    73  PHE73       0.2596
     33  O        -15.2100   29.1690   68.0840 O.2    73  PHE73      -0.2718
     34  CB       -15.9030   28.8770   71.4090 C.3    73  PHE73       0.0547
     35  CG       -16.8840   29.9840   71.2180 C.ar   73  PHE73      -0.0202
     36  CD1      -17.9640   29.8360   70.3550 C.ar   73  PHE73      -0.0042
     37  CD2      -16.7360   31.1810   71.9110 C.ar   73  PHE73      -0.0042
     38  CE1      -18.8860   30.8840   70.1800 C.ar   73  PHE73      -0.0003
     39  CE2      -17.6520   32.2250   71.7460 C.ar   73  PHE73      -0.0003
     40  CZ       -18.7250   32.0730   70.8760 C.ar   73  PHE73      -0.0000
     41  N        -15.6220   27.1300   68.9640 N.am   74  GLY74      -0.1942
     42  CA       -16.0210   26.4820   67.7450 C.3    74  GLY74       0.2014
     43  C        -17.4950   26.6260   67.5150 C.2    74  GLY74       0.2639
     44  O        -17.9860   27.7410   67.4410 O.2    74  GLY74      -0.2714
     45  N        -18.2040   25.5040   67.4010 N.am   75  ASN75      -0.1958
     46  CA       -19.6320   25.5140   67.1190 C.3    75  ASN75       0.1819
     47  C        -20.3260   24.3540   67.8340 C.2    75  ASN75       0.2621
     48  O        -19.6840   23.6160   68.5990 O.2    75  ASN75      -0.2715
     49  CB       -19.8490   25.4690   65.5910 C.3    75  ASN75       0.1195
     50  CG       -19.3130   24.2020   64.9460 C.2    75  ASN75       0.2630
     51  OD1      -19.7530   23.1080   65.2710 O.2    75  ASN75      -0.2716
     52  ND2      -18.3800   24.3470   63.9970 N.am   75  ASN75      -0.0877
     53  N        -21.6310   24.2130   67.6100 N.am   76  ILE76      -0.1963
     54  CA       -22.4350   23.1540   68.2350 C.3    76  ILE76       0.1727
     55  C        -22.9520   22.1820   67.1660 C.2    76  ILE76       0.2616
     56  O        -23.9770   21.5210   67.3360 O.2    76  ILE76      -0.2715
     57  CB       -23.5800   23.7330   69.0870 C.3    76  ILE76       0.0290
     58  CG1      -24.4210   24.7310   68.2850 C.3    76  ILE76       0.0022
     59  CG2      -23.0230   24.4510   70.3130 C.3    76  ILE76       0.0023
     60  CD1      -25.7320   25.0780   68.9550 C.3    76  ILE76       0.0001
     61  N        -22.1990   22.0540   66.0820 N.am   77  ASN77      -0.1972
     62  CA       -22.5710   21.1550   64.9860 C.3    77  ASN77       0.1688
     63  C        -22.3700   19.6770   65.3540 C.2    77  ASN77       0.2292
     64  O        -23.0240   18.8010   64.7680 O.2    77  ASN77      -0.2864
     65  CB       -21.7360   21.4490   63.7340 C.3    77  ASN77       0.1181
     66  CG       -22.0090   22.8270   63.1270 C.2    77  ASN77       0.2629
     67  OD1      -22.9430   23.5340   63.5120 O.2    77  ASN77      -0.2716
     68  ND2      -21.1800   23.2050   62.1620 N.am   77  ASN77      -0.0877
     69  N        -15.9060   24.2810   80.5560 N.3   135  THR135     -0.1203
     70  CA       -16.7030   24.9010   79.5180 C.3   135  THR135      0.1994
     71  C        -16.1650   26.2660   79.0340 C.2   135  THR135      0.2617
     72  O        -16.1470   26.5560   77.8360 O.2   135  THR135     -0.2717
     73  CB       -18.1500   25.0690   80.0310 C.3   135  THR135      0.1784
     74  OG1      -18.6730   23.7690   80.4080 O.3   135  THR135     -0.2211
     75  CG2      -19.0320   25.7020   78.9520 C.3   135  THR135      0.0376
     76  N        -15.7310   27.0810   79.9700 N.am  136  LEU136     -0.1979
     77  CA       -15.3440   28.4560   79.6760 C.3   136  LEU136      0.1596
     78  C        -13.8550   28.7070   79.6700 C.2   136  LEU136      0.2287
     79  O        -13.4510   29.7710   79.1940 O.2   136  LEU136     -0.2864
     80  CB       -15.9800   29.3780   80.7090 C.3   136  LEU136      0.0297
     81  CG       -17.5030   29.4180   80.7110 C.3   136  LEU136      0.0022
     82  CD1      -17.9850   30.3770   81.7990 C.3   136  LEU136      0.0001
     83  CD2      -18.0440   29.8210   79.3470 C.3   136  LEU136      0.0001
     84  N        -12.1450   24.6990   77.0970 N.3   139  ILE139     -0.1231
     85  CA       -12.6480   24.6000   75.7360 C.3   139  ILE139      0.1678
     86  C        -12.1520   25.7570   74.8300 C.2   139  ILE139      0.2434
     87  O        -11.6210   25.5290   73.7270 O.2   139  ILE139     -0.2733
     88  CB       -14.2020   24.4230   75.7300 C.3   139  ILE139      0.0265
     89  CG1      -14.5340   22.9370   75.9410 C.3   139  ILE139      0.0019
     90  CG2      -14.8180   24.9830   74.4230 C.3   139  ILE139      0.0020
     91  CD1      -15.9510   22.6650   76.3870 C.3   139  ILE139      0.0001
     92  N        -12.3230   27.0000   75.2790 N.am  140  PRO140     -0.2729
     93  CA       -11.7630   28.1350   74.5030 C.3   140  PRO140      0.1401
     94  C        -10.2320   28.1970   74.3390 C.2   140  PRO140      0.2269
     95  O         -9.7450   28.5350   73.2530 O.2   140  PRO140     -0.2865
     96  CB       -12.2670   29.3570   75.2770 C.3   140  PRO140      0.0296
     97  CG       -13.4490   28.8800   76.0140 C.3   140  PRO140      0.0237
     98  CD       -13.1580   27.4620   76.3980 C.3   140  PRO140      0.0939
@<TRIPOS>BOND
     1    16    15   ar
     2    17    15   ar
     3    15    14    1
     4    14    13    1
     5    13    10    1
     6    68    66   am
     7    66    67    2
     8    66    65    1
     9    10    11    1
    10    10     9    1
    11    21    20    2
    12    12    11    2
    13    11    18   am
    14    65    62    1
    15    52    50   am
    16    18    19    1
    17    20    19    1
    18    20    22   am
    19    64    63    2
    20    50    51    2
    21    50    49    1
    22    62    63    1
    23    62    61    1
    24    49    46    1
    25    22    23    1
    26    23    24    1
    27    23    26    1
    28    61    55   am
    29    24    25    2
    30    26    27    1
    31    46    45    1
    32    46    47    1
    33    55    56    2
    34    55    54    1
    35    45    43   am
    36    44    43    2
    37    43    42    1
    38    53    47   am
    39    53    54    1
    40    42    41    1
    41    47    48    2
    42    27    29   am
    43    27    28    2
    44    33    32    2
    45    54    57    1
    46    58    60    1
    47    58    57    1
    48    41    32   am
    49    32    31    1
    50    57    59    1
    51    38    36   ar
    52    38    40   ar
    53    30    31    1
    54    36    35   ar
    55    31    34    1
    56     1     2    1
    57     4     3    2
    58     2     3    1
    59     2     5    1
    60    40    39   ar
    61    35    34    1
    62    35    37   ar
    63     8     6    1
    64    39    37   ar
    65     6     5    1
    66     6     7    1
    67    95    94    2
    68    87    86    2
    69    94    93    1
    70    90    88    1
    71    93    96    1
    72    93    92    1
    73    86    92   am
    74    86    85    1
    75    96    97    1
    76    92    98    1
    77    88    85    1
    78    88    89    1
    79    85    84    1
    80    89    91    1
    81    97    98    1
    82    72    71    2
    83    75    73    1
    84    71    70    1
    85    71    76   am
    86    79    78    2
    87    83    81    1
    88    70    73    1
    89    70    69    1
    90    78    77    1
    91    77    76    1
    92    77    80    1
    93    73    74    1
    94    80    81    1
    95    81    82    1
