@<TRIPOS>MOLECULE
tmp/2ns1A08.pdb
 116 116 0 0 0
SMALL
GASTEIGER

@<TRIPOS>ATOM
      1  N        -13.0270   21.9950   68.9050 N.3    66  PHE66      -0.1241
      2  CA       -12.4450   21.6310   67.6420 C.3    66  PHE66       0.1605
      3  C        -13.2950   21.9820   66.4260 C.2    66  PHE66       0.2264
      4  O        -12.7920   21.9320   65.3200 O.2    66  PHE66      -0.2867
      5  CB       -12.0130   20.1560   67.6590 C.3    66  PHE66       0.0534
      6  CG       -10.7720   19.9610   68.4580 C.ar   66  PHE66      -0.0203
      7  CD1       -9.5400   20.2130   67.8910 C.ar   66  PHE66      -0.0042
      8  CD2      -10.8410   19.6630   69.8110 C.ar   66  PHE66      -0.0042
      9  CE1       -8.3960   20.1200   68.6500 C.ar   66  PHE66      -0.0003
     10  CE2       -9.6960   19.5550   70.5780 C.ar   66  PHE66      -0.0003
     11  CZ        -8.4720   19.8090   70.0010 C.ar   66  PHE66      -0.0000
     12  N         -9.8700   10.9060   67.1520 N.3    98  HIS98      -0.1241
     13  CA        -9.5080   12.2720   67.4870 C.3    98  HIS98       0.1621
     14  C        -10.3590   12.7750   68.6570 C.2    98  HIS98       0.2264
     15  O         -9.8450   13.4220   69.5790 O.2    98  HIS98      -0.2867
     16  CB        -9.6490   13.1630   66.2360 C.3    98  HIS98       0.0745
     17  CG        -9.2250   14.5790   66.4490 C.ar   98  HIS98       0.0817
     18  ND1      -10.1270   15.6110   66.5630 N.ar   98  HIS98      -0.2268
     19  CD2       -7.9990   15.1380   66.5440 C.ar   98  HIS98       0.1154
     20  CE1       -9.4760   16.7450   66.7470 C.ar   98  HIS98       0.1986
     21  NE2       -8.1840   16.4840   66.7460 N.ar   98  HIS98      -0.2212
     22  N         -9.0100   11.0220   71.8250 N.3   101  PHE101     -0.1227
     23  CA        -7.6670   11.4720   72.1430 C.3   101  PHE101      0.1736
     24  C         -7.6970   12.8710   72.7720 C.2   101  PHE101      0.2595
     25  O         -7.1610   13.0690   73.8420 O.2   101  PHE101     -0.2718
     26  CB        -6.7710   11.4240   70.9060 C.3   101  PHE101      0.0547
     27  CG        -5.3520   11.8100   71.1890 C.ar  101  PHE101     -0.0202
     28  CD1       -4.5140   10.9470   71.8990 C.ar  101  PHE101     -0.0042
     29  CD2       -4.8510   13.0310   70.7640 C.ar  101  PHE101     -0.0042
     30  CE1       -3.2050   11.2900   72.1730 C.ar  101  PHE101     -0.0003
     31  CE2       -3.5520   13.3880   71.0400 C.ar  101  PHE101     -0.0003
     32  CZ        -2.7190   12.5110   71.7550 C.ar  101  PHE101     -0.0000
     33  N         -8.3790   13.8150   72.1420 N.am  102  GLN102     -0.1979
     34  CA        -8.5210   15.1610   72.7080 C.3   102  GLN102      0.1601
     35  C         -9.3530   15.1920   74.0000 C.2   102  GLN102      0.2287
     36  O         -9.0890   16.0110   74.8950 O.2   102  GLN102     -0.2864
     37  CB        -9.0680   16.1240   71.6340 C.3   102  GLN102      0.0394
     38  CG        -8.0390   16.4360   70.5580 C.3   102  GLN102      0.0908
     39  CD        -6.7750   17.0020   71.1160 C.2   102  GLN102      0.2608
     40  OE1       -6.8080   17.7610   72.0690 O.2   102  GLN102     -0.2717
     41  NE2       -5.6380   16.5920   70.5660 N.am  102  GLN102     -0.0878
     42  N         -7.0960   14.5530   76.9640 N.3   105  PHE105     -0.1241
     43  CA        -6.3860   15.7580   77.3950 C.3   105  PHE105      0.1605
     44  C         -7.2150   16.6020   78.3250 C.2   105  PHE105      0.2264
     45  O         -6.6940   17.1400   79.2960 O.2   105  PHE105     -0.2867
     46  CB        -5.9490   16.6160   76.1980 C.3   105  PHE105      0.0534
     47  CG        -4.6680   16.1390   75.5520 C.ar  105  PHE105     -0.0203
     48  CD1       -4.5640   14.8500   75.0430 C.ar  105  PHE105     -0.0042
     49  CD2       -3.5790   16.9820   75.4530 C.ar  105  PHE105     -0.0042
     50  CE1       -3.4000   14.4090   74.4500 C.ar  105  PHE105     -0.0003
     51  CE2       -2.3990   16.5490   74.8590 C.ar  105  PHE105     -0.0003
     52  CZ        -2.3100   15.2660   74.3490 C.ar  105  PHE105     -0.0000
     53  N         -5.2910   24.9040   69.5100 N.3   146  TRP146     -0.1241
     54  CA        -5.3110   23.7270   68.6820 C.3   146  TRP146      0.1605
     55  C         -6.5080   23.6170   67.7530 C.2   146  TRP146      0.2264
     56  O         -6.5350   22.7540   66.8850 O.2   146  TRP146     -0.2867
     57  CB        -5.2800   22.4880   69.5840 C.3   146  TRP146      0.0550
     58  CG        -4.0160   22.2990   70.3480 C.ar  146  TRP146      0.0003
     59  CD1       -2.7650   22.7730   70.0330 C.ar  146  TRP146      0.0946
     60  CD2       -3.8570   21.5160   71.5280 C.ar  146  TRP146      0.0152
     61  NE1       -1.8490   22.3450   70.9660 N.ar  146  TRP146     -0.2442
     62  CE2       -2.4990   21.5720   71.8910 C.ar  146  TRP146      0.0810
     63  CE3       -4.7360   20.7700   72.3190 C.ar  146  TRP146      0.0012
     64  CZ2       -2.0120   20.9240   73.0060 C.ar  146  TRP146      0.0191
     65  CZ3       -4.2520   20.1350   73.4080 C.ar  146  TRP146      0.0001
     66  CH2       -2.9060   20.2050   73.7510 C.ar  146  TRP146      0.0015
     67  N          2.9990   24.9950   70.5010 N.3   158  ASP158     -0.1225
     68  CA         2.6710   24.2510   71.7070 C.3   158  ASP158      0.1805
     69  C          2.2570   22.8740   71.2270 C.2   158  ASP158      0.2597
     70  O          1.1210   22.6440   70.8370 O.2   158  ASP158     -0.2718
     71  CB         1.5440   24.9210   72.4630 C.3   158  ASP158      0.1424
     72  CG         1.2920   24.2860   73.8120 C.2   158  ASP158      0.3668
     73  OD1        0.4370   24.8070   74.5380 O.co2 158  ASP158     -0.2456
     74  OD2        1.9320   23.2660   74.1560 O.co2 158  ASP158     -0.2456
     75  N          3.2070   21.9770   71.2000 N.am  159  PHE159     -0.1976
     76  CA         2.9920   20.6920   70.5560 C.3   159  PHE159      0.1639
     77  C          1.9440   19.8520   71.2870 C.2   159  PHE159      0.2290
     78  O          1.0060   19.3670   70.6670 O.2   159  PHE159     -0.2864
     79  CB         4.2980   19.9210   70.4720 C.3   159  PHE159      0.0560
     80  CG         4.2390   18.7660   69.5190 C.ar  159  PHE159     -0.0200
     81  CD1        4.1950   18.9930   68.1440 C.ar  159  PHE159     -0.0042
     82  CD2        4.2190   17.4490   69.9890 C.ar  159  PHE159     -0.0042
     83  CE1        4.1470   17.9320   67.2470 C.ar  159  PHE159     -0.0003
     84  CE2        4.1810   16.3870   69.1010 C.ar  159  PHE159     -0.0003
     85  CZ         4.1320   16.6330   67.7200 C.ar  159  PHE159     -0.0000
     86  N          1.6160   10.9160   70.6580 N.3   216  GLY216     -0.1210
     87  CA         0.3260   10.9930   69.9870 C.3   216  GLY216      0.1956
     88  C         -0.0570   12.3460   69.4980 C.2   216  GLY216      0.2613
     89  O         -0.9370   12.4650   68.6500 O.2   216  GLY216     -0.2717
     90  N          0.5700   13.3950   70.0310 N.am  217  SER217     -0.1938
     91  CA         0.2150   14.7250   69.5840 C.3   217  SER217      0.2055
     92  C          0.7170   14.9640   68.1420 C.2   217  SER217      0.2643
     93  O          0.3550   15.9560   67.5470 O.2   217  SER217     -0.2714
     94  CB         0.6990   15.7940   70.5580 C.3   217  SER217      0.2130
     95  OG        -0.1430   15.8180   71.6930 O.3   217  SER217     -0.2179
     96  N          1.5070   14.0360   67.5840 N.am  218  ALA218     -0.1963
     97  CA         1.8720   14.0620   66.1620 C.3   218  ALA218      0.1728
     98  C          0.6960   13.6510   65.3070 C.2   218  ALA218      0.2616
     99  O          0.6130   14.0240   64.1530 O.2   218  ALA218     -0.2715
    100  CB         3.0650   13.1470   65.8780 C.3   218  ALA218      0.0334
    101  N         -0.2100   12.8570   65.8620 N.am  219  GLY219     -0.1955
    102  CA        -1.3960   12.4270   65.1420 C.3   219  GLY219      0.1869
    103  C         -1.1660   11.2650   64.1930 C.2   219  GLY219      0.2309
    104  O         -2.0710   10.8390   63.4800 O.2   219  GLY219     -0.2863
    105  N          9.0830   19.8520   68.1830 N.3   276  TYR276     -0.1241
    106  CA         9.7270   20.9700   67.4700 C.3   276  TYR276      0.1605
    107  C         11.2310   21.0760   67.6770 C.2   276  TYR276      0.2264
    108  O         11.9190   21.7690   66.9240 O.2   276  TYR276     -0.2867
    109  CB         9.1140   22.2850   67.9530 C.3   276  TYR276      0.0534
    110  CG         7.6430   22.3830   67.6990 C.ar  276  TYR276     -0.0201
    111  CD1        7.1350   22.2070   66.4280 C.ar  276  TYR276     -0.0009
    112  CD2        6.7570   22.6530   68.7240 C.ar  276  TYR276     -0.0009
    113  CE1        5.7850   22.2770   66.1890 C.ar  276  TYR276      0.0417
    114  CE2        5.4080   22.7470   68.4820 C.ar  276  TYR276      0.0417
    115  CZ         4.9250   22.5520   67.2240 C.ar  276  TYR276      0.1957
    116  OH         3.5790   22.6400   66.9690 O.3   276  TYR276     -0.2866
@<TRIPOS>BOND
     1   104   103    2
     2    99    98    2
     3   103   102    1
     4   102   101    1
     5    98   101   am
     6    98    97    1
     7     4     3    2
     8   100    97    1
     9    97    96    1
    10   113   111   ar
    11   113   115   ar
    12    16    17    1
    13    16    13    1
    14     3     2    1
    15   111   110   ar
    16    17    19   ar
    17    17    18   ar
    18    19    21   ar
    19    18    20   ar
    20    21    20   ar
    21    56    55    2
    22   108   107    2
    23   116   115    1
    24    12    13    1
    25   115   114   ar
    26    83    85   ar
    27    83    81   ar
    28   106   107    1
    29   106   109    1
    30   106   105    1
    31    13    14    1
    32    93    92    2
    33    96    92   am
    34     2     5    1
    35     2     1    1
    36     5     6    1
    37   110   109    1
    38   110   112   ar
    39    85    84   ar
    40    55    54    1
    41     7     6   ar
    42     7     9   ar
    43    92    91    1
    44    81    80   ar
    45     6     8   ar
    46   114   112   ar
    47    89    88    2
    48     9    11   ar
    49    14    15    2
    50    54    53    1
    51    54    57    1
    52    84    82   ar
    53    88    87    1
    54    88    90   am
    55    80    82   ar
    56    80    79    1
    57    91    90    1
    58    91    94    1
    59    57    58    1
    60     8    10   ar
    61    87    86    1
    62    11    10   ar
    63    59    58   ar
    64    59    61   ar
    65    58    60   ar
    66    79    76    1
    67    67    68    1
    68    76    75    1
    69    76    77    1
    70    38    39    1
    71    38    37    1
    72    94    95    1
    73    41    39   am
    74    78    77    2
    75    29    31   ar
    76    29    27   ar
    77    70    69    2
    78    26    27    1
    79    26    23    1
    80    61    62   ar
    81    31    32   ar
    82    39    40    2
    83    27    28   ar
    84    75    69   am
    85    69    68    1
    86    60    62   ar
    87    60    63   ar
    88    37    34    1
    89    68    71    1
    90    32    30   ar
    91    22    23    1
    92    62    64   ar
    93    28    30   ar
    94    33    34    1
    95    33    24   am
    96    23    24    1
    97    63    65   ar
    98    71    72    1
    99    34    35    1
   100    24    25    2
   101    64    66   ar
   102    65    66   ar
   103    72    74   ar
   104    72    73   ar
   105    35    36    2
   106    52    50   ar
   107    52    51   ar
   108    50    48   ar
   109    51    49   ar
   110    48    47   ar
   111    49    47   ar
   112    47    46    1
   113    46    43    1
   114    42    43    1
   115    43    44    1
   116    44    45    2
