@<TRIPOS>MOLECULE
tmp/2ns8A01.pdb
 111 106 0 0 0
SMALL
GASTEIGER

@<TRIPOS>ATOM
      1  N         38.9460   70.0470   10.5720 N.3    23  LEU23      -0.1231
      2  CA        37.7130   70.6360   11.0540 C.3    23  LEU23       0.1693
      3  C         38.0300   71.6110   12.1830 C.2    23  LEU23       0.2593
      4  O         37.6560   71.3910   13.3330 O.2    23  LEU23      -0.2718
      5  CB        36.7550   69.5230   11.4920 C.3    23  LEU23       0.0284
      6  CG        35.2540   69.8210   11.3910 C.3    23  LEU23       0.0019
      7  CD1       34.8150   70.1490    9.9820 C.3    23  LEU23       0.0001
      8  CD2       34.4630   68.6280   11.9080 C.3    23  LEU23       0.0001
      9  N         38.7240   72.6940   11.8310 N.am   24  THR24      -0.1939
     10  CA        39.2170   73.6780   12.8000 C.3    24  THR24       0.2028
     11  C         38.2420   74.8350   12.8710 C.2    24  THR24       0.2643
     12  O         37.3690   74.9510   12.0090 O.2    24  THR24      -0.2714
     13  CB        40.6040   74.1910   12.4040 C.3    24  THR24       0.1808
     14  OG1       40.5220   74.8650   11.1530 O.3    24  THR24      -0.2208
     15  CG2       41.5990   73.0230   12.2680 C.3    24  THR24       0.0379
     16  N         38.3720   75.6770   13.8980 N.am   25  THR25      -0.1936
     17  CA        37.4670   76.8220   14.0910 C.3    25  THR25       0.2028
     18  C         37.5190   77.7690   12.9100 C.2    25  THR25       0.2642
     19  O         36.5170   78.3270   12.4900 O.2    25  THR25      -0.2714
     20  CB        37.8530   77.6670   15.3010 C.3    25  THR25       0.1808
     21  OG1       39.1640   78.2140   15.0960 O.3    25  THR25      -0.2208
     22  CG2       37.8030   76.8560   16.5970 C.3    25  THR25       0.0379
     23  N         38.7080   77.9640   12.3850 N.am   26  ARG26      -0.1977
     24  CA        38.8870   78.8850   11.2920 C.3    26  ARG26       0.1597
     25  C         38.0660   78.4570   10.0780 C.2    26  ARG26       0.2287
     26  O         37.3770   79.2790    9.4740 O.2    26  ARG26      -0.2864
     27  CB        40.3670   78.9780   10.9310 C.3    26  ARG26       0.0334
     28  CG        40.8180   80.3590   10.5030 C.3    26  ARG26       0.0492
     29  CD        42.2120   80.2840    9.8680 C.3    26  ARG26       0.2205
     30  NE        43.1160   81.3730   10.2430 N.pl3  26  ARG26      -0.0865
     31  CZ        43.5920   81.5830   11.4730 C.cat  26  ARG26       0.5346
     32  NH1       43.2170   80.8240   12.5050 N.pl3  26  ARG26       0.1354
     33  NH2       44.4340   82.5790   11.6890 N.pl3  26  ARG26       0.1354
     34  N         35.4990   76.2680    9.8760 N.3    28  LEU28      -0.1245
     35  CA        34.0600   76.2170   10.1220 C.3    28  LEU28       0.1561
     36  C         33.4340   77.6130   10.0880 C.2    28  LEU28       0.2260
     37  O         32.4590   77.8430    9.3670 O.2    28  LEU28      -0.2867
     38  CB        33.7350   75.5630   11.4650 C.3    28  LEU28       0.0270
     39  CG        32.5950   74.5310   11.4630 C.3    28  LEU28       0.0019
     40  CD1       31.8910   74.5260   12.8170 C.3    28  LEU28       0.0001
     41  CD2       31.5620   74.6970   10.3200 C.3    28  LEU28       0.0001
     42  N         34.5400   84.0390   14.3550 N.3    36  GLN36      -0.1245
     43  CA        34.6970   82.9970   15.3600 C.3    36  GLN36       0.1566
     44  C         33.8690   83.1490   16.6360 C.2    36  GLN36       0.2260
     45  O         33.4600   82.1470   17.2280 O.2    36  GLN36      -0.2867
     46  CB        36.1800   82.8220   15.7100 C.3    36  GLN36       0.0367
     47  CG        36.9540   82.2210   14.5590 C.3    36  GLN36       0.0905
     48  CD        38.3700   81.8400   14.9240 C.2    36  GLN36       0.2608
     49  OE1       38.5880   81.0520   15.8310 O.2    36  GLN36      -0.2717
     50  NE2       39.3360   82.3790   14.1940 N.am   36  GLN36      -0.0878
     51  N         30.5230   81.4950   16.1850 N.3    39  LEU39      -0.1231
     52  CA        30.6930   80.0270   16.2210 C.3    39  LEU39       0.1693
     53  C         30.9360   79.5030   17.6380 C.2    39  LEU39       0.2592
     54  O         30.4460   78.4480   18.0170 O.2    39  LEU39      -0.2718
     55  CB        31.8540   79.5950   15.3240 C.3    39  LEU39       0.0284
     56  CG        32.2080   78.1100   15.3240 C.3    39  LEU39       0.0019
     57  CD1       31.0210   77.2880   14.9530 C.3    39  LEU39       0.0001
     58  CD2       33.3330   77.8430   14.3710 C.3    39  LEU39       0.0001
     59  N         31.7160   80.2400   18.4120 N.am   40  TYR40      -0.1976
     60  CA        31.9720   79.8790   19.8040 C.3    40  TYR40       0.1639
     61  C         30.6690   79.8310   20.6020 C.2    40  TYR40       0.2290
     62  O         30.4950   78.9810   21.4680 O.2    40  TYR40      -0.2864
     63  CB        32.9610   80.8760   20.4140 C.3    40  TYR40       0.0560
     64  CG        33.2920   80.6610   21.8800 C.ar   40  TYR40      -0.0198
     65  CD1       34.3930   79.8980   22.2640 C.ar   40  TYR40      -0.0009
     66  CD2       32.5330   81.2580   22.8780 C.ar   40  TYR40      -0.0009
     67  CE1       34.7040   79.7020   23.5980 C.ar   40  TYR40       0.0417
     68  CE2       32.8330   81.0790   24.2060 C.ar   40  TYR40       0.0417
     69  CZ        33.9230   80.3050   24.5610 C.ar   40  TYR40       0.1957
     70  OH        34.2230   80.1400   25.8910 O.3    40  TYR40      -0.2866
     71  N         29.1710   76.5750   19.8110 N.3    43  VAL43      -0.1231
     72  CA        29.9780   75.3930   20.1950 C.3    43  VAL43       0.1692
     73  C         31.2920   75.7800   20.8650 C.2    43  VAL43       0.2592
     74  O         32.1530   76.4350   20.2510 O.2    43  VAL43      -0.2718
     75  CB        30.4450   74.5330   18.9860 C.3    43  VAL43       0.0266
     76  CG1       30.3960   73.0740   19.3540 C.3    43  VAL43       0.0020
     77  CG2       29.6490   74.7860   17.7450 C.3    43  VAL43       0.0020
     78  N         31.4930   75.3100   22.0880 N.am   44  LYS44      -0.1966
     79  CA        32.6470   75.7470   22.8920 C.3    44  LYS44       0.1728
     80  C         33.9720   75.0970   22.4910 C.2    44  LYS44       0.2616
     81  O         35.0200   75.7370   22.5530 O.2    44  LYS44      -0.2715
     82  CB        32.3760   75.5170   24.3910 C.3    44  LYS44       0.0311
     83  CG        31.6130   76.6650   25.0860 C.3    44  LYS44       0.0038
     84  CD        30.2470   77.0080   24.4250 C.3    44  LYS44       0.0206
     85  CE        29.5650   78.2120   25.0960 C.3    44  LYS44       0.1093
     86  NZ        30.6030   79.1420   25.6100 N.3    44  LYS44      -0.1314
     87  N         33.9100   73.8380   22.0770 N.am   45  ASN45      -0.1958
     88  CA        35.1040   73.0450   21.7960 C.3    45  ASN45       0.1819
     89  C         34.8320   71.9930   20.7080 C.2    45  ASN45       0.2621
     90  O         33.6840   71.7920   20.3050 O.2    45  ASN45      -0.2715
     91  CB        35.5690   72.3890   23.0870 C.3    45  ASN45       0.1195
     92  CG        34.4800   71.5640   23.7300 C.2    45  ASN45       0.2630
     93  OD1       33.9170   70.6690   23.0990 O.2    45  ASN45      -0.2716
     94  ND2       34.1570   71.8680   24.9820 N.am   45  ASN45      -0.0877
     95  N         35.8820   71.3270   20.2420 N.am   46  LYS46      -0.1977
     96  CA        35.7770   70.3850   19.1190 C.3    46  LYS46       0.1596
     97  C         35.0060   69.1350   19.5060 C.2    46  LYS46       0.2287
     98  O         34.2050   68.6440   18.7240 O.2    46  LYS46      -0.2864
     99  CB        37.1640   69.9890   18.6140 C.3    46  LYS46       0.0298
    100  CG        37.2090   69.5060   17.1640 C.3    46  LYS46       0.0038
    101  CD        38.5800   68.8710   16.8720 C.3    46  LYS46       0.0206
    102  CE        38.6790   68.2900   15.4820 C.3    46  LYS46       0.1093
    103  NZ        38.9230   69.3490   14.4710 N.3    46  LYS46      -0.1314
    104  N         31.4520   69.6470   19.2680 N.3    49  LEU49      -0.1245
    105  CA        31.0150   69.5990   17.8900 C.3    49  LEU49       0.1561
    106  C         30.8940   68.1500   17.4530 C.2    49  LEU49       0.2260
    107  O         29.8600   67.7480   16.9190 O.2    49  LEU49      -0.2867
    108  CB        31.9780   70.3290   16.9540 C.3    49  LEU49       0.0270
    109  CG        31.5960   70.2280   15.4610 C.3    49  LEU49       0.0019
    110  CD1       30.5290   71.2180   15.0620 C.3    49  LEU49       0.0001
    111  CD2       32.8320   70.3820   14.5940 C.3    49  LEU49       0.0001
@<TRIPOS>BOND
     1    37    36    2
     2    26    25    2
     3    29    30    1
     4    29    28    1
     5    34    35    1
     6     7     6    1
     7    25    24    1
     8    36    35    1
     9    35    38    1
    10    30    31    2
    11    41    39    1
    12    28    27    1
    13     1     2    1
    14    27    24    1
    15     2     5    1
    16     2     3    1
    17    14    13    1
    18    24    23    1
    19     6     5    1
    20     6     8    1
    21    39    38    1
    22    39    40    1
    23    31    33    1
    24    31    32    1
    25     9     3   am
    26     9    10    1
    27    12    11    2
    28     3     4    2
    29    15    13    1
    30    23    18   am
    31    13    10    1
    32    19    18    2
    33    10    11    1
    34    11    16   am
    35    18    17    1
    36    16    17    1
    37    17    20    1
    38    50    48   am
    39    42    43    1
    40    58    56    1
    41   103   102    1
    42    47    48    1
    43    47    46    1
    44   111   109    1
    45    48    49    2
    46    57    56    1
    47   110   109    1
    48    21    20    1
    49    20    22    1
    50    56    55    1
    51    55    52    1
    52    43    46    1
    53    43    44    1
    54   109   108    1
    55   102   101    1
    56    51    52    1
    57    52    53    1
    58    44    45    2
    59   101   100    1
    60   107   106    2
    61   108   105    1
    62   100    99    1
    63   106   105    1
    64    53    54    2
    65    53    59   am
    66    77    75    1
    67   105   104    1
    68    59    60    1
    69    99    96    1
    70    98    97    2
    71    75    76    1
    72    75    72    1
    73    96    97    1
    74    96    95    1
    75    60    63    1
    76    60    61    1
    77    71    72    1
    78    72    73    1
    79    95    89   am
    80    74    73    2
    81    90    89    2
    82    63    64    1
    83    61    62    2
    84    89    88    1
    85    73    78   am
    86    88    87    1
    87    88    91    1
    88    64    65   ar
    89    64    66   ar
    90    87    80   am
    91    78    79    1
    92    65    67   ar
    93    80    81    2
    94    80    79    1
    95    66    68   ar
    96    79    82    1
    97    91    92    1
    98    93    92    2
    99    67    69   ar
   100    92    94   am
   101    68    69   ar
   102    82    83    1
   103    84    83    1
   104    84    85    1
   105    69    70    1
   106    85    86    1
