@<TRIPOS>MOLECULE
tmp/2ns8C00.pdb
 158 151 0 0 0
SMALL
GASTEIGER

@<TRIPOS>ATOM
      1  N         16.7770    6.9420  -16.6030 N.3   143  SER143     -0.1217
      2  CA        15.6240    7.2310  -17.4670 C.3   143  SER143      0.1889
      3  C         15.0970    8.6470  -17.3020 C.2   143  SER143      0.2288
      4  O         14.8030    9.3110  -18.2830 O.2   143  SER143     -0.2866
      5  CB        14.5160    6.2400  -17.1990 C.3   143  SER143      0.2089
      6  OG        15.0160    4.9490  -17.4740 O.3   143  SER143     -0.2183
      7  N         17.7550   11.5390  -18.5150 N.3   146  GLU146     -0.1231
      8  CA        17.7170   11.7410  -19.9570 C.3   146  GLU146      0.1699
      9  C         16.4590   12.4610  -20.3830 C.2   146  GLU146      0.2592
     10  O         16.5370   13.3960  -21.1690 O.2   146  GLU146     -0.2718
     11  CB        17.8190   10.4270  -20.7220 C.3   146  GLU146      0.0402
     12  CG        19.2220   10.1050  -21.1600 C.3   146  GLU146      0.1161
     13  CD        19.6870   10.9450  -22.3070 C.2   146  GLU146      0.3649
     14  OE1       20.3190   11.9770  -22.0320 O.co2 146  GLU146     -0.2457
     15  OE2       19.4280   10.5830  -23.4720 O.co2 146  GLU146     -0.2457
     16  N         15.3120   12.0090  -19.8840 N.am  147  ASP147     -0.1974
     17  CA        14.0420   12.6800  -20.1700 C.3   147  ASP147      0.1709
     18  C         14.1210   14.1910  -19.8730 C.2   147  ASP147      0.2293
     19  O         13.7600   15.0230  -20.7130 O.2   147  ASP147     -0.2864
     20  CB        12.8790   12.0450  -19.3760 C.3   147  ASP147      0.1436
     21  CG        12.4480   10.6670  -19.9190 C.2   147  ASP147      0.3671
     22  OD1       13.0500   10.1380  -20.8890 O.co2 147  ASP147     -0.2456
     23  OD2       11.4850   10.1000  -19.3550 O.co2 147  ASP147     -0.2456
     24  N         16.8280   16.0810  -22.2450 N.3   150  HIS150     -0.1226
     25  CA        16.4420   16.2360  -23.6270 C.3   150  HIS150      0.1752
     26  C         15.4060   17.3530  -23.7210 C.2   150  HIS150      0.2595
     27  O         15.3600   18.0820  -24.7090 O.2   150  HIS150     -0.2718
     28  CB        15.9070   14.9340  -24.1980 C.3   150  HIS150      0.0759
     29  CG        16.9750   13.9950  -24.6500 C.ar  150  HIS150      0.0818
     30  ND1       17.6990   14.2000  -25.7980 N.ar  150  HIS150     -0.2268
     31  CD2       17.4410   12.8410  -24.1160 C.ar  150  HIS150      0.1154
     32  CE1       18.5560   13.2080  -25.9630 C.ar  150  HIS150      0.1986
     33  NE2       18.4270   12.3760  -24.9490 N.ar  150  HIS150     -0.2212
     34  N         14.6130   17.5150  -22.6610 N.am  151  GLN151     -0.1979
     35  CA        13.5970   18.5530  -22.6300 C.3   151  GLN151      0.1601
     36  C         14.0940   19.9560  -22.3540 C.2   151  GLN151      0.2287
     37  O         13.3440   20.8940  -22.5400 O.2   151  GLN151     -0.2864
     38  CB        12.4710   18.1820  -21.6740 C.3   151  GLN151      0.0394
     39  CG        11.1910   17.8090  -22.4370 C.3   151  GLN151      0.0908
     40  CD        10.3490   16.8140  -21.7100 C.2   151  GLN151      0.2608
     41  OE1       10.7180   16.3640  -20.6170 O.2   151  GLN151     -0.2717
     42  NE2        9.2170   16.4300  -22.3150 N.am  151  GLN151     -0.0878
     43  N         16.0130   20.4290  -26.3300 N.3   154  LYS154     -0.1231
     44  CA        15.1480   20.5710  -27.5160 C.3   154  LYS154      0.1693
     45  C         14.7900   22.0360  -27.8110 C.2   154  LYS154      0.2591
     46  O         14.2890   22.3400  -28.8840 O.2   154  LYS154     -0.2718
     47  CB        13.8610   19.7640  -27.3570 C.3   154  LYS154      0.0285
     48  CG        12.9780   20.2820  -26.2540 C.3   154  LYS154      0.0035
     49  CD        11.7210   19.4830  -26.1020 C.3   154  LYS154      0.0206
     50  CE        10.6770   20.3280  -25.3730 C.3   154  LYS154      0.1093
     51  NZ         9.4660   19.5500  -25.0690 N.3   154  LYS154     -0.1314
     52  N         15.0300   22.9170  -26.8380 N.am  155  GLU155     -0.1979
     53  CA        14.8420   24.3710  -26.9780 C.3   155  GLU155      0.1602
     54  C         16.1130   25.0830  -27.4610 C.2   155  GLU155      0.2287
     55  O         16.0470   26.1600  -28.0480 O.2   155  GLU155     -0.2864
     56  CB        14.3780   24.9790  -25.6360 C.3   155  GLU155      0.0415
     57  CG        12.9140   25.4820  -25.6110 C.3   155  GLU155      0.1163
     58  CD        11.8810   24.3690  -25.6380 C.2   155  GLU155      0.3649
     59  OE1       11.0590   24.2890  -24.7090 O.co2 155  GLU155     -0.2457
     60  OE2       11.8790   23.5830  -26.5980 O.co2 155  GLU155     -0.2457
     61  N         18.2830   24.1130  -29.7200 N.3   157  ARG157     -0.1231
     62  CA        18.7050   23.8650  -31.0930 C.3   157  ARG157      0.1694
     63  C         17.5090   23.7780  -32.0290 C.2   157  ARG157      0.2592
     64  O         16.3520   23.6640  -31.5900 O.2   157  ARG157     -0.2718
     65  CB        19.5910   22.6090  -31.2040 C.3   157  ARG157      0.0321
     66  CG        18.9070   21.3120  -30.7860 C.3   157  ARG157      0.0489
     67  CD        19.9210   20.2840  -30.2930 C.3   157  ARG157      0.2205
     68  NE        19.2980   19.3470  -29.3560 N.pl3 157  ARG157     -0.0865
     69  CZ        19.9440   18.4200  -28.6430 C.cat 157  ARG157      0.5346
     70  NH1       21.2670   18.2580  -28.7320 N.pl3 157  ARG157      0.1354
     71  NH2       19.2420   17.6390  -27.8270 N.pl3 157  ARG157      0.1354
     72  N         17.8350   23.8480  -33.3230 N.am  158  GLU158     -0.1966
     73  CA        16.8650   23.7790  -34.4250 C.3   158  GLU158      0.1733
     74  C         15.9820   22.5330  -34.3730 C.2   158  GLU158      0.2617
     75  O         16.2180   21.6080  -33.6110 O.2   158  GLU158     -0.2715
     76  CB        17.5300   23.8960  -35.8300 C.3   158  GLU158      0.0429
     77  CG        19.0820   23.9830  -35.9230 C.3   158  GLU158      0.1163
     78  CD        19.6130   25.4080  -35.7530 C.2   158  GLU158      0.3649
     79  OE1       18.8930   26.2520  -35.1680 O.co2 158  GLU158     -0.2457
     80  OE2       20.7430   25.6920  -36.2190 O.co2 158  GLU158     -0.2457
     81  N         14.9680   22.5220  -35.2200 N.am  159  THR159     -0.1937
     82  CA        13.8770   21.5720  -35.1100 C.3   159  THR159      0.2013
     83  C         14.2230   20.2290  -35.8280 C.2   159  THR159      0.2484
     84  O         15.2510   20.1460  -36.5180 O.2   159  THR159     -0.2729
     85  CB        12.5690   22.2540  -35.6690 C.3   159  THR159      0.1807
     86  OG1       11.4040   21.7180  -35.0310 O.3   159  THR159     -0.2208
     87  CG2       12.4480   22.1080  -37.2110 C.3   159  THR159      0.0379
     88  N         13.4030   19.1670  -35.6080 N.am  160  PRO160     -0.2715
     89  CA        13.2540   17.9510  -36.4350 C.3   160  PRO160      0.1536
     90  C         13.5800   17.9770  -37.9440 C.2   160  PRO160      0.2599
     91  O         12.8460   18.5660  -38.7420 O.2   160  PRO160     -0.2715
     92  CB        11.7690   17.6120  -36.2440 C.3   160  PRO160      0.0310
     93  CG        11.5130   17.9850  -34.7850 C.3   160  PRO160      0.0237
     94  CD        12.5840   19.0220  -34.3850 C.3   160  PRO160      0.0939
     95  N         14.6680   17.2970  -38.3050 N.am  161  THR161     -0.1951
     96  CA        14.9650   16.9120  -39.6910 C.3   161  THR161      0.1897
     97  C         14.4180   15.4850  -39.9550 C.2   161  THR161      0.2313
     98  O         15.1840   14.5410  -40.2120 O.2   161  THR161     -0.2863
     99  CB        16.4990   16.9700  -39.9910 C.3   161  THR161      0.1794
    100  OG1       16.7750   16.3510  -41.2610 O.3   161  THR161     -0.2208
    101  CG2       17.3300   16.2730  -38.8900 C.3   161  THR161      0.0378
    102  N         15.5360   10.7760  -42.6770 N.3   165  MET165     -0.1245
    103  CA        15.6000    9.5230  -41.9390 C.3   165  MET165      0.1570
    104  C         15.2430    8.2760  -42.7200 C.2   165  MET165      0.2261
    105  O         14.2660    8.2570  -43.4560 O.2   165  MET165     -0.2867
    106  CB        14.6940    9.5860  -40.7230 C.3   165  MET165      0.0387
    107  CG        14.9570   10.7820  -39.8830 C.3   165  MET165      0.0595
    108  SD        14.8200   10.4160  -38.1450 S.3   165  MET165     -0.1393
    109  CE        15.5190   11.9300  -37.4970 C.3   165  MET165      0.0692
    110  N         13.8410    4.0120  -38.6130 N.3   169  LEU169     -0.1245
    111  CA        14.1330    5.0550  -37.6420 C.3   169  LEU169      0.1561
    112  C         12.9880    6.0490  -37.5710 C.2   169  LEU169      0.2260
    113  O         12.5740    6.4600  -36.4880 O.2   169  LEU169     -0.2867
    114  CB        15.4370    5.7660  -37.9970 C.3   169  LEU169      0.0270
    115  CG        15.8840    6.8990  -37.0680 C.3   169  LEU169      0.0019
    116  CD1       15.8910    6.5190  -35.5830 C.3   169  LEU169      0.0001
    117  CD2       17.2690    7.3940  -37.4990 C.3   169  LEU169      0.0001
    118  N         10.3450    4.6230  -35.7230 N.3   172  ALA172     -0.1231
    119  CA        10.7040    4.6990  -34.3080 C.3   172  ALA172      0.1694
    120  C         10.3780    6.0670  -33.7510 C.2   172  ALA172      0.2591
    121  O          9.6930    6.1920  -32.7450 O.2   172  ALA172     -0.2718
    122  CB        12.1870    4.3950  -34.1030 C.3   172  ALA172      0.0304
    123  N         10.8780    7.0950  -34.4190 N.am  173  ILE173     -0.1980
    124  CA        10.6450    8.4470  -33.9670 C.3   173  ILE173      0.1595
    125  C          9.1420    8.7010  -33.8840 C.2   173  ILE173      0.2287
    126  O          8.6490    9.2070  -32.8740 O.2   173  ILE173     -0.2864
    127  CB        11.3880    9.4970  -34.8460 C.3   173  ILE173      0.0276
    128  CG1       12.6780    9.9560  -34.1540 C.3   173  ILE173      0.0022
    129  CG2       10.5230   10.7450  -35.1130 C.3   173  ILE173      0.0022
    130  CD1       13.6390    8.8440  -33.8020 C.3   173  ILE173      0.0001
    131  N          7.7100    7.4480  -30.8150 N.3   176  PHE176     -0.1227
    132  CA         8.1140    8.1860  -29.6260 C.3   176  PHE176      0.1736
    133  C          7.2520    9.3860  -29.2980 C.2   176  PHE176      0.2595
    134  O          6.7240    9.4690  -28.2020 O.2   176  PHE176     -0.2718
    135  CB         9.5960    8.5920  -29.6750 C.3   176  PHE176      0.0547
    136  CG        10.5470    7.4760  -29.3200 C.ar  176  PHE176     -0.0202
    137  CD1       10.1820    6.4690  -28.4090 C.ar  176  PHE176     -0.0042
    138  CD2       11.8260    7.4510  -29.8700 C.ar  176  PHE176     -0.0042
    139  CE1       11.0620    5.4510  -28.0780 C.ar  176  PHE176     -0.0003
    140  CE2       12.7210    6.4460  -29.5480 C.ar  176  PHE176     -0.0003
    141  CZ        12.3460    5.4400  -28.6510 C.ar  176  PHE176     -0.0000
    142  N          7.1140   10.3170  -30.2240 N.am  177  ASP177     -0.1974
    143  CA         6.3130   11.5200  -29.9580 C.3   177  ASP177      0.1709
    144  C          4.8100   11.2540  -30.1040 C.2   177  ASP177      0.2293
    145  O          3.9980   12.1630  -29.9520 O.2   177  ASP177     -0.2864
    146  CB         6.7160   12.6460  -30.9010 C.3   177  ASP177      0.1436
    147  CG         6.3320   12.3470  -32.3160 C.2   177  ASP177      0.3671
    148  OD1        6.7360   11.2680  -32.8120 O.co2 177  ASP177     -0.2456
    149  OD2        5.5980   13.1610  -32.9130 O.co2 177  ASP177     -0.2456
    150  N          5.5520    9.1780  -26.0340 N.3   180  GLY180     -0.1210
    151  CA         6.4660    9.6360  -24.9930 C.3   180  GLY180      0.1956
    152  C          7.3320    8.5330  -24.3750 C.2   180  GLY180      0.2611
    153  O          7.5370    7.4620  -24.9510 O.2   180  GLY180     -0.2717
    154  N          7.8170    8.8030  -23.1700 N.am  181  ALA181     -0.1979
    155  CA         8.8800    7.9970  -22.5630 C.3   181  ALA181      0.1597
    156  C          8.3850    6.8800  -21.6340 C.2   181  ALA181      0.2287
    157  O          9.1600    5.9810  -21.2940 O.2   181  ALA181     -0.2864
    158  CB         9.8880    8.9240  -21.8150 C.3   181  ALA181      0.0319
@<TRIPOS>BOND
     1   105   104    2
     2   104   103    1
     3   102   103    1
     4   103   106    1
     5   100    99    1
     6   106   107    1
     7    98    97    2
     8    99    96    1
     9    99   101    1
    10    97    96    1
    11   107   108    1
    12    96    95    1
    13    91    90    2
    14   110   111    1
    15    95    90   am
    16   108   109    1
    17   114   111    1
    18   114   115    1
    19    90    89    1
    20   111   112    1
    21   112   113    2
    22   117   115    1
    23    87    85    1
    24   115   116    1
    25    84    83    2
    26    89    92    1
    27    89    88    1
    28    92    93    1
    29    80    78   ar
    30    77    76    1
    31    77    78    1
    32    76    73    1
    33    83    88   am
    34    83    82    1
    35    78    79   ar
    36   118   119    1
    37    85    82    1
    38    85    86    1
    39    88    94    1
    40    81    82    1
    41    81    74   am
    42   129   127    1
    43   127   128    1
    44   127   124    1
    45    93    94    1
    46    73    74    1
    47    73    72    1
    48   123   124    1
    49   123   120   am
    50    74    75    2
    51   119   122    1
    52   119   120    1
    53   128   130    1
    54   124   125    1
    55   125   126    2
    56   120   121    2
    57    72    63   am
    58   149   147   ar
    59   148   147   ar
    60   147   146    1
    61    63    64    2
    62    63    62    1
    63    65    62    1
    64    65    66    1
    65    62    61    1
    66   146   143    1
    67   131   132    1
    68    66    67    1
    69    67    68    1
    70   142   143    1
    71   142   133   am
    72   144   143    1
    73   144   145    2
    74   138   140   ar
    75   138   136   ar
    76   135   132    1
    77   135   136    1
    78   132   133    1
    79   140   141   ar
    80    68    69    2
    81   136   137   ar
    82   133   134    2
    83    46    45    2
    84    70    69    1
    85   141   139   ar
    86    69    71    1
    87   137   139   ar
    88    55    54    2
    89    45    44    1
    90    45    52   am
    91    44    47    1
    92    44    43    1
    93    54    53    1
    94    47    48    1
    95    53    52    1
    96    53    56    1
    97    60    58   ar
    98    48    49    1
    99    49    50    1
   100   150   151    1
   101    32    30   ar
   102    32    33   ar
   103    30    29   ar
   104    58    57    1
   105    58    59   ar
   106    56    57    1
   107    50    51    1
   108   151   152    1
   109   153   152    2
   110    33    31   ar
   111    27    26    2
   112    29    28    1
   113    29    31   ar
   114   152   154   am
   115    28    25    1
   116    26    25    1
   117    26    34   am
   118    25    24    1
   119    15    13   ar
   120   154   155    1
   121    34    35    1
   122    35    36    1
   123    35    38    1
   124   155   158    1
   125   155   156    1
   126    37    36    2
   127    39    40    1
   128    39    38    1
   129    42    40   am
   130    13    14   ar
   131    13    12    1
   132    40    41    2
   133   156   157    2
   134    10     9    2
   135    12    11    1
   136    22    21   ar
   137    11     8    1
   138    19    18    2
   139     9     8    1
   140     9    16   am
   141    17    16    1
   142    17    18    1
   143    17    20    1
   144     8     7    1
   145    21    20    1
   146    21    23   ar
   147     4     3    2
   148     6     5    1
   149     2     3    1
   150     2     5    1
   151     2     1    1
