@<TRIPOS>MOLECULE
tmp/2ns8B00.pdb
 154 147 0 0 0
SMALL
GASTEIGER

@<TRIPOS>ATOM
      1  N         54.0670   46.3000   19.7370 N.3    57  LEU57      -0.1245
      2  CA        53.7750   44.8900   19.4760 C.3    57  LEU57       0.1561
      3  C         54.9720   44.0800   19.8930 C.2    57  LEU57       0.2260
      4  O         54.8420   43.0790   20.5600 O.2    57  LEU57      -0.2867
      5  CB        53.4680   44.6230   18.0140 C.3    57  LEU57       0.0270
      6  CG        52.2840   45.3790   17.4410 C.3    57  LEU57       0.0019
      7  CD1       52.1750   44.9980   16.0210 C.3    57  LEU57       0.0001
      8  CD2       50.9880   45.0720   18.1990 C.3    57  LEU57       0.0001
      9  N         53.3670   42.3060   22.7100 N.3    61  HIS61      -0.1241
     10  CA        52.5150   41.3250   22.0370 C.3    61  HIS61       0.1621
     11  C         53.2280   39.9600   22.0280 C.2    61  HIS61       0.2264
     12  O         53.8340   39.5350   21.0190 O.2    61  HIS61      -0.2867
     13  CB        52.2070   41.8020   20.6350 C.3    61  HIS61       0.0745
     14  CG        51.1600   41.0100   19.9470 C.ar   61  HIS61       0.0817
     15  ND1       50.2940   40.1760   20.6170 N.ar   61  HIS61      -0.2268
     16  CD2       50.8260   40.9340   18.6390 C.ar   61  HIS61       0.1154
     17  CE1       49.4700   39.6210   19.7520 C.ar   61  HIS61       0.1986
     18  NE2       49.7760   40.0590   18.5420 N.ar   61  HIS61      -0.2212
     19  N         52.1190   36.4750   19.7110 N.3    64  PHE64      -0.1241
     20  CA        52.0080   36.8040   18.2920 C.3    64  PHE64       0.1605
     21  C         51.8120   35.5340   17.4620 C.2    64  PHE64       0.2264
     22  O         50.9960   35.4920   16.5660 O.2    64  PHE64      -0.2867
     23  CB        53.2750   37.5300   17.7960 C.3    64  PHE64       0.0534
     24  CG        53.0030   38.6640   16.7880 C.ar   64  PHE64      -0.0203
     25  CD1       54.0220   39.5860   16.4760 C.ar   64  PHE64      -0.0042
     26  CD2       51.7400   38.8270   16.1680 C.ar   64  PHE64      -0.0042
     27  CE1       53.8000   40.6240   15.5620 C.ar   64  PHE64      -0.0003
     28  CE2       51.5100   39.8690   15.2490 C.ar   64  PHE64      -0.0003
     29  CZ        52.5380   40.7690   14.9510 C.ar   64  PHE64      -0.0000
     30  N         45.9560   35.2210   21.7730 N.3    79  ASN79      -0.1240
     31  CA        46.4400   36.2290   20.8220 C.3    79  ASN79       0.1653
     32  C         45.6760   37.5460   20.9520 C.2    79  ASN79       0.2266
     33  O         46.2580   38.6350   20.8560 O.2    79  ASN79      -0.2867
     34  CB        46.3410   35.7090   19.3870 C.3    79  ASN79       0.1155
     35  CG        46.9070   36.6770   18.3810 C.2    79  ASN79       0.2627
     36  OD1       46.1740   37.4200   17.7590 O.2    79  ASN79      -0.2716
     37  ND2       48.2280   36.6790   18.2260 N.am   79  ASN79      -0.0877
     38  N         47.3440   41.0310   22.3870 N.3    83  PHE83      -0.1241
     39  CA        47.2870   42.1700   21.4780 C.3    83  PHE83       0.1605
     40  C         46.6620   43.3570   22.2430 C.2    83  PHE83       0.2264
     41  O         47.1070   44.5020   22.1750 O.2    83  PHE83      -0.2867
     42  CB        46.4760   41.7240   20.2390 C.3    83  PHE83       0.0534
     43  CG        46.1950   42.8060   19.2350 C.ar   83  PHE83      -0.0203
     44  CD1       47.1570   43.7350   18.8880 C.ar   83  PHE83      -0.0042
     45  CD2       44.9670   42.8520   18.6000 C.ar   83  PHE83      -0.0042
     46  CE1       46.8800   44.7240   17.9420 C.ar   83  PHE83      -0.0003
     47  CE2       44.6800   43.8190   17.6650 C.ar   83  PHE83      -0.0003
     48  CZ        45.6430   44.7620   17.3300 C.ar   83  PHE83      -0.0000
     49  N         47.9140   50.4450   10.4140 N.3   100  THR100     -0.1203
     50  CA        49.3250   50.0960   10.2900 C.3   100  THR100      0.1994
     51  C         49.3570   48.7660    9.5590 C.2   100  THR100      0.2618
     52  O         48.5860   47.8510    9.8520 O.2   100  THR100     -0.2717
     53  CB        50.0370   50.0180   11.6850 C.3   100  THR100      0.1784
     54  OG1       49.6440   51.1350   12.4960 O.3   100  THR100     -0.2211
     55  CG2       51.5590   50.0800   11.5270 C.3   100  THR100      0.0376
     56  N         50.1950   48.6770    8.5420 N.am  101  ARG101     -0.1965
     57  CA        50.2530   47.4490    7.7880 C.3   101  ARG101      0.1714
     58  C         51.4540   46.7240    8.3170 C.2   101  ARG101      0.2458
     59  O         52.4140   47.3590    8.7320 O.2   101  ARG101     -0.2730
     60  CB        50.3560   47.6870    6.2790 C.3   101  ARG101      0.0347
     61  CG        51.7690   47.6760    5.7150 C.3   101  ARG101      0.0492
     62  CD        51.8140   47.3830    4.2080 C.3   101  ARG101      0.2205
     63  NE        50.6880   47.9390    3.4510 N.pl3 101  ARG101     -0.0865
     64  CZ        50.7770   48.7110    2.3600 C.cat 101  ARG101      0.5346
     65  NH1       51.9550   49.0620    1.8410 N.pl3 101  ARG101      0.1354
     66  NH2       49.6560   49.1420    1.7730 N.pl3 101  ARG101      0.1354
     67  N         51.4150   45.3960    8.3050 N.am  102  PRO102     -0.2727
     68  CA        52.5940   44.6490    8.7000 C.3   102  PRO102      0.1402
     69  C         53.7480   44.8200    7.7280 C.2   102  PRO102      0.2269
     70  O         53.5460   44.8130    6.5040 O.2   102  PRO102     -0.2865
     71  CB        52.1190   43.1900    8.6780 C.3   102  PRO102      0.0296
     72  CG        50.6230   43.2580    8.5940 C.3   102  PRO102      0.0237
     73  CD        50.3000   44.5200    7.9160 C.3   102  PRO102      0.0939
     74  N         55.7140   39.2110    8.1460 N.3   107  TYR107     -0.1241
     75  CA        54.9920   38.3280    7.1980 C.3   107  TYR107      0.1605
     76  C         54.9440   36.8180    7.5270 C.2   107  TYR107      0.2264
     77  O         53.9620   36.1390    7.1900 O.2   107  TYR107     -0.2867
     78  CB        55.5960   38.4400    5.8000 C.3   107  TYR107      0.0534
     79  CG        55.2920   39.6970    5.0280 C.ar  107  TYR107     -0.0201
     80  CD1       54.6480   40.8000    5.6080 C.ar  107  TYR107     -0.0009
     81  CD2       55.7010   39.7970    3.7000 C.ar  107  TYR107     -0.0009
     82  CE1       54.4040   41.9490    4.8740 C.ar  107  TYR107      0.0417
     83  CE2       55.4640   40.9350    2.9570 C.ar  107  TYR107      0.0417
     84  CZ        54.8200   42.0040    3.5370 C.ar  107  TYR107      0.1957
     85  OH        54.6140   43.1130    2.7500 O.3   107  TYR107     -0.2866
     86  N         52.5100   35.9810   10.3420 N.3   110  LEU110     -0.1245
     87  CA        51.1540   35.9670    9.7870 C.3   110  LEU110      0.1561
     88  C         50.8720   34.6490    9.0610 C.2   110  LEU110      0.2260
     89  O         49.7750   34.1080    9.1140 O.2   110  LEU110     -0.2867
     90  CB        50.9470   37.1330    8.8130 C.3   110  LEU110      0.0270
     91  CG        51.1330   38.5620    9.3130 C.3   110  LEU110      0.0019
     92  CD1       51.0560   39.5240    8.1390 C.3   110  LEU110      0.0001
     93  CD2       50.1060   38.9310   10.3640 C.3   110  LEU110      0.0001
     94  N         50.1950   31.6780   11.5260 N.3   113  GLN113     -0.1231
     95  CA        48.8360   31.9110   12.0300 C.3   113  GLN113      0.1698
     96  C         47.8250   31.2430   11.1180 C.2   113  GLN113      0.2592
     97  O         47.0620   30.3710   11.5530 O.2   113  GLN113     -0.2718
     98  CB        48.5270   33.3950   12.1300 C.3   113  GLN113      0.0381
     99  CG        49.0800   34.0610   13.4020 C.3   113  GLN113      0.0905
    100  CD        48.7870   35.5340   13.4580 C.2   113  GLN113      0.2608
    101  OE1       47.7260   35.9880   13.0360 O.2   113  GLN113     -0.2717
    102  NE2       49.7260   36.2930   13.9740 N.am  113  GLN113     -0.0878
    103  N         47.8510   31.6170    9.8400 N.am  114  LEU114     -0.1980
    104  CA        46.9280   31.0540    8.8620 C.3   114  LEU114      0.1596
    105  C         47.0940   29.5510    8.7570 C.2   114  LEU114      0.2287
    106  O         46.1170   28.7990    8.8460 O.2   114  LEU114     -0.2864
    107  CB        47.1490   31.6910    7.4880 C.3   114  LEU114      0.0297
    108  CG        46.8220   33.1800    7.3510 C.3   114  LEU114      0.0022
    109  CD1       47.1970   33.6300    5.9470 C.3   114  LEU114      0.0001
    110  CD2       45.3510   33.4850    7.6480 C.3   114  LEU114      0.0001
    111  N         40.8460   33.5540    7.9070 N.3   128  LEU128     -0.1245
    112  CA        40.8880   35.0160    7.7840 C.3   128  LEU128      0.1561
    113  C         39.7610   35.7250    8.5320 C.2   128  LEU128      0.2260
    114  O         40.0060   36.6140    9.3370 O.2   128  LEU128     -0.2867
    115  CB        40.8480   35.4270    6.3370 C.3   128  LEU128      0.0270
    116  CG        42.1270   35.0900    5.6180 C.3   128  LEU128      0.0019
    117  CD1       41.9160   35.3950    4.1390 C.3   128  LEU128      0.0001
    118  CD2       43.3010   35.8710    6.1860 C.3   128  LEU128      0.0001
    119  N         40.4630   35.5150   12.3410 N.3   131  LEU131     -0.1231
    120  CA        41.5290   36.4330   12.7920 C.3   131  LEU131      0.1693
    121  C         41.0680   37.8910   12.6920 C.2   131  LEU131      0.2592
    122  O         41.1740   38.6700   13.6290 O.2   131  LEU131     -0.2718
    123  CB        42.7900   36.2160   11.9640 C.3   131  LEU131      0.0284
    124  CG        43.4670   34.8760   12.2490 C.3   131  LEU131      0.0019
    125  CD1       44.3950   34.4760   11.0880 C.3   131  LEU131      0.0001
    126  CD2       44.2580   34.8970   13.5610 C.3   131  LEU131      0.0001
    127  N         40.5090   38.2250   11.5480 N.am  132  SER132     -0.1952
    128  CA        39.9090   39.5210   11.3460 C.3   132  SER132      0.1924
    129  C         38.9150   39.8880   12.4170 C.2   132  SER132      0.2314
    130  O         38.8920   41.0510   12.8470 O.2   132  SER132     -0.2863
    131  CB        39.1850   39.5730   10.0120 C.3   132  SER132      0.2116
    132  OG        38.6500   40.8480    9.8360 O.3   132  SER132     -0.2180
    133  N         40.6740   40.4940   15.7950 N.3   135  GLY135     -0.1210
    134  CA        41.5160   41.6710   15.7290 C.3   135  GLY135      0.1956
    135  C         40.7150   42.9590   15.7680 C.2   135  GLY135      0.2611
    136  O         41.0050   43.8660   16.5520 O.2   135  GLY135     -0.2717
    137  N         39.7170   43.0590   14.9030 N.am  136  HIS136     -0.1975
    138  CA        38.9040   44.2710   14.8460 C.3   136  HIS136      0.1656
    139  C         38.0960   44.4570   16.1310 C.2   136  HIS136      0.2291
    140  O         37.9230   45.5840   16.6010 O.2   136  HIS136     -0.2864
    141  CB        37.9680   44.2520   13.6430 C.3   136  HIS136      0.0771
    142  CG        38.6520   44.4530   12.3360 C.ar  136  HIS136      0.0820
    143  ND1       38.9540   43.4080   11.4850 N.ar  136  HIS136     -0.2267
    144  CD2       39.0520   45.5810   11.7010 C.ar  136  HIS136      0.1154
    145  CE1       39.5170   43.8840   10.3870 C.ar  136  HIS136      0.1986
    146  NE2       39.5890   45.1990   10.4890 N.ar  136  HIS136     -0.2212
    147  N         40.6120   45.7150   18.7640 N.3   139  LEU139     -0.1245
    148  CA        41.1270   47.0470   18.5280 C.3   139  LEU139      0.1561
    149  C         40.0600   48.0600   18.8970 C.2   139  LEU139      0.2260
    150  O         40.3380   49.0160   19.6180 O.2   139  LEU139     -0.2867
    151  CB        41.5230   47.2140   17.0840 C.3   139  LEU139      0.0270
    152  CG        42.0300   48.6060   16.7230 C.3   139  LEU139      0.0019
    153  CD1       43.2860   48.9530   17.4640 C.3   139  LEU139      0.0001
    154  CD2       42.2630   48.6960   15.2600 C.3   139  LEU139      0.0001
@<TRIPOS>BOND
     1    66    64    1
     2    65    64    1
     3    64    63    2
     4    85    84    1
     5    83    84   ar
     6    83    81   ar
     7    63    62    1
     8    84    82   ar
     9    81    79   ar
    10   117   116    1
    11    62    61    1
    12    82    80   ar
    13    79    80   ar
    14    79    78    1
    15   116   118    1
    16   116   115    1
    17    61    60    1
    18    78    75    1
    19   109   108    1
    20    60    57    1
    21   115   112    1
    22    70    69    2
    23    77    76    2
    24    75    76    1
    25    75    74    1
    26   108   107    1
    27   108   110    1
    28   107   104    1
    29    69    68    1
    30   112   111    1
    31   112   113    1
    32    57    58    1
    33    57    56    1
    34    73    67    1
    35    73    72    1
    36    92    91    1
    37    67    58   am
    38    67    68    1
    39    58    59    2
    40   113   114    2
    41    56    51   am
    42    72    71    1
    43    71    68    1
    44   105   106    2
    45   105   104    1
    46    90    91    1
    47    90    87    1
    48   104   103    1
    49    88    89    2
    50    88    87    1
    51    91    93    1
    52    51    52    2
    53    51    50    1
    54    87    86    1
    55   132   131    1
    56   103    96   am
    57   131   128    1
    58    50    49    1
    59    50    53    1
    60   145   146   ar
    61   145   143   ar
    62   146   144   ar
    63   125   124    1
    64    96    97    2
    65    96    95    1
    66   128   127    1
    67   128   129    1
    68   143   142   ar
    69    94    95    1
    70    55    53    1
    71   127   121   am
    72    53    54    1
    73   144   142   ar
    74   123   124    1
    75   123   120    1
    76    95    98    1
    77    98    99    1
    78   124   126    1
    79   142   141    1
    80   119   120    1
    81   129   130    2
    82   121   120    1
    83   121   122    2
    84   101   100    2
    85    99   100    1
    86   100   102   am
    87   141   138    1
    88   138   137    1
    89   138   139    1
    90   137   135   am
    91    29    28   ar
    92    29    27   ar
    93    28    26   ar
    94   154   152    1
    95    27    25   ar
    96   134   135    1
    97   134   133    1
    98   135   136    2
    99     7     6    1
   100   139   140    2
   101    26    24   ar
   102    25    24   ar
   103    22    21    2
   104   152   151    1
   105   152   153    1
   106    24    23    1
   107   151   148    1
   108    48    47   ar
   109    48    46   ar
   110     6     5    1
   111     6     8    1
   112    21    20    1
   113    47    45   ar
   114    36    35    2
   115    23    20    1
   116    46    44   ar
   117     5     2    1
   118    37    35   am
   119    20    19    1
   120    35    34    1
   121   148   147    1
   122   148   149    1
   123    18    16   ar
   124    18    17   ar
   125    45    43   ar
   126    16    14   ar
   127    44    43   ar
   128   149   150    2
   129    43    42    1
   130    34    31    1
   131     2     1    1
   132     2     3    1
   133    17    15   ar
   134     3     4    2
   135    14    15   ar
   136    14    13    1
   137    42    39    1
   138    13    10    1
   139    31    32    1
   140    31    30    1
   141    33    32    2
   142    12    11    2
   143    39    40    1
   144    39    38    1
   145    11    10    1
   146    10     9    1
   147    41    40    2
