@<TRIPOS>MOLECULE
tmp/2nsdB01.pdb
 180 173 0 0 0
SMALL
GASTEIGER

@<TRIPOS>ATOM
      1  N         68.9710   62.9170   16.4150 N.3    95  GLY95      -0.1210
      2  CA        67.8710   62.0680   15.9980 C.3    95  GLY95       0.1956
      3  C         68.3400   60.9710   15.0670 C.2    95  GLY95       0.2612
      4  O         69.3260   61.1450   14.3540 O.2    95  GLY95      -0.2717
      5  N         67.6370   59.8420   15.0670 N.am   96  PHE96      -0.1962
      6  CA        68.0060   58.7270   14.2030 C.3    96  PHE96       0.1771
      7  C         67.0130   57.5790   14.2540 C.2    96  PHE96       0.2619
      8  O         66.4710   57.2580   15.3060 O.2    96  PHE96      -0.2715
      9  CB        69.3850   58.1820   14.5920 C.3    96  PHE96       0.0574
     10  CG        69.7930   56.9570   13.8160 C.ar   96  PHE96      -0.0200
     11  CD1       70.2740   57.0700   12.5160 C.ar   96  PHE96      -0.0042
     12  CD2       69.6640   55.6870   14.3770 C.ar   96  PHE96      -0.0042
     13  CE1       70.6220   55.9330   11.7790 C.ar   96  PHE96      -0.0003
     14  CE2       70.0070   54.5420   13.6530 C.ar   96  PHE96      -0.0003
     15  CZ        70.4870   54.6660   12.3520 C.ar   96  PHE96      -0.0000
     16  N         66.7940   56.9530   13.1040 N.am   97  MET97      -0.1977
     17  CA        65.9020   55.8110   13.0100 C.3    97  MET97       0.1605
     18  C         66.3190   55.0080   11.7860 C.2    97  MET97       0.2287
     19  O         66.5100   55.5660   10.7080 O.2    97  MET97      -0.2864
     20  CB        64.4450   56.2690   12.8710 C.3    97  MET97       0.0413
     21  CG        63.4240   55.1300   12.8640 C.3    97  MET97       0.0598
     22  SD        63.4980   54.1020   14.3540 S.3    97  MET97      -0.1393
     23  CE        62.6170   55.1700   15.5580 C.3    97  MET97       0.0692
     24  N         61.4370   54.0440    9.1270 N.3   102  MET102     -0.1245
     25  CA        61.1210   55.3750    8.6350 C.3   102  MET102      0.1570
     26  C         61.4280   55.5100    7.1570 C.2   102  MET102      0.2261
     27  O         62.5910   55.5500    6.7550 O.2   102  MET102     -0.2867
     28  CB        61.9030   56.4210    9.4250 C.3   102  MET102      0.0387
     29  CG        61.7760   57.8220    8.8730 C.3   102  MET102      0.0595
     30  SD        62.7170   59.0060    9.8230 S.3   102  MET102     -0.1393
     31  CE        64.3930   58.5610    9.3680 C.3   102  MET102      0.0692
     32  N         59.3960   66.9630   16.3050 N.3   148  PHE148     -0.1241
     33  CA        58.5700   67.0670   15.1040 C.3   148  PHE148      0.1605
     34  C         57.2050   66.5620   15.5840 C.2   148  PHE148      0.2264
     35  O         57.0630   65.3960   15.9520 O.2   148  PHE148     -0.2867
     36  CB        59.1140   66.2040   13.9510 C.3   148  PHE148      0.0534
     37  CG        58.4650   66.5020   12.6220 C.ar  148  PHE148     -0.0203
     38  CD1       58.4900   67.7950   12.0980 C.ar  148  PHE148     -0.0042
     39  CD2       57.7870   65.5140   11.9200 C.ar  148  PHE148     -0.0042
     40  CE1       57.8500   68.1000   10.9010 C.ar  148  PHE148     -0.0003
     41  CE2       57.1340   65.8090   10.7120 C.ar  148  PHE148     -0.0003
     42  CZ        57.1680   67.1070   10.2060 C.ar  148  PHE148     -0.0000
     43  N         51.2410   60.2060   10.1840 N.3   154  MET154     -0.1231
     44  CA        51.4230   60.7040    8.8300 C.3   154  MET154      0.1687
     45  C         52.1810   59.6480    8.0490 C.2   154  MET154      0.2434
     46  O         52.7600   58.7390    8.6340 O.2   154  MET154     -0.2733
     47  CB        52.2280   61.9940    8.8620 C.3   154  MET154      0.0400
     48  CG        53.6110   61.8220    9.4640 C.3   154  MET154      0.0596
     49  SD        54.4030   63.3980    9.7810 S.3   154  MET154     -0.1393
     50  CE        53.7650   63.8070   11.4190 C.3   154  MET154      0.0692
     51  N         52.1860   59.7440    6.7140 N.am  155  PRO155     -0.2718
     52  CA        52.9210   58.7230    5.9630 C.3   155  PRO155      0.1535
     53  C         54.4370   58.8430    6.1060 C.2   155  PRO155      0.2598
     54  O         54.9620   59.9160    6.4090 O.2   155  PRO155     -0.2715
     55  CB        52.4480   58.9470    4.5260 C.3   155  PRO155      0.0310
     56  CG        52.1670   60.4160    4.4900 C.3   155  PRO155      0.0237
     57  CD        51.4580   60.6490    5.8080 C.3   155  PRO155      0.0939
     58  N         55.1250   57.7200    5.9130 N.am  156  ALA156     -0.1964
     59  CA        56.5840   57.6550    5.9610 C.3   156  ALA156      0.1728
     60  C         57.3060   57.8340    7.3020 C.2   156  ALA156      0.2616
     61  O         58.1800   57.0310    7.6370 O.2   156  ALA156     -0.2715
     62  CB        57.1610   58.6310    4.9440 C.3   156  ALA156      0.0334
     63  N         56.9630   58.8730    8.0610 N.am  157  TYR157     -0.1974
     64  CA        57.6420   59.1320    9.3330 C.3   157  TYR157      0.1639
     65  C         57.6290   57.9160   10.2590 C.2   157  TYR157      0.2290
     66  O         58.5800   57.6820   11.0030 O.2   157  TYR157     -0.2864
     67  CB        57.0260   60.3540   10.0270 C.3   157  TYR157      0.0560
     68  CG        57.9850   61.0570   10.9590 C.ar  157  TYR157     -0.0198
     69  CD1       59.3030   61.2930   10.5730 C.ar  157  TYR157     -0.0009
     70  CD2       57.5730   61.5150   12.2130 C.ar  157  TYR157     -0.0009
     71  CE1       60.1830   61.9670   11.4110 C.ar  157  TYR157      0.0417
     72  CE2       58.4510   62.2020   13.0590 C.ar  157  TYR157      0.0417
     73  CZ        59.7540   62.4250   12.6480 C.ar  157  TYR157      0.1957
     74  OH        60.6260   63.1240   13.4530 O.3   157  TYR157     -0.2866
     75  N         59.6590   56.9570   13.6310 N.3   160  MET160     -0.1245
     76  CA        60.3580   58.1470   14.1120 C.3   160  MET160      0.1570
     77  C         59.2950   58.9970   14.8200 C.2   160  MET160      0.2261
     78  O         59.5980   59.7750   15.7210 O.2   160  MET160     -0.2867
     79  CB        60.9630   58.9360   12.9520 C.3   160  MET160      0.0387
     80  CG        61.8160   60.1160   13.3860 C.3   160  MET160      0.0595
     81  SD        63.2640   59.6390   14.3770 S.3   160  MET160     -0.1393
     82  CE        63.4890   61.0910   15.3700 C.3   160  MET160      0.0692
     83  N         59.3930   60.4730   18.6170 N.3   164  LYS164     -0.1245
     84  CA        59.1550   61.8590   19.0210 C.3   164  LYS164      0.1561
     85  C         58.0730   61.9240   20.1070 C.2   164  LYS164      0.2260
     86  O         58.1090   62.8020   20.9710 O.2   164  LYS164     -0.2867
     87  CB        58.7360   62.7210   17.8230 C.3   164  LYS164      0.0271
     88  CG        59.8610   63.0250   16.8180 C.3   164  LYS164      0.0035
     89  CD        61.0170   63.7490   17.4920 C.3   164  LYS164      0.0206
     90  CE        62.0230   64.2830   16.4660 C.3   164  LYS164      0.1093
     91  NZ        63.2360   64.8620   17.1220 N.3   164  LYS164     -0.1314
     92  N         59.0140   71.0960    8.6610 N.3   192  PRO192     -0.2116
     93  CA        59.9940   70.3750    7.8390 C.3   192  PRO192      0.1372
     94  C         61.1320   71.2670    7.3660 C.2   192  PRO192      0.2244
     95  O         60.9020   72.3790    6.8960 O.2   192  PRO192     -0.2868
     96  CB        59.1670   69.8750    6.6570 C.3   192  PRO192      0.0268
     97  CG        57.7610   69.8680    7.1850 C.3   192  PRO192      0.0207
     98  CD        57.6910   71.0930    8.0190 C.3   192  PRO192      0.0892
     99  N         67.2660   69.3560    5.6200 N.3   195  THR195     -0.1218
    100  CA        68.6260   69.1020    6.0560 C.3   195  THR195      0.1862
    101  C         69.0280   67.9500    5.1510 C.2   195  THR195      0.2287
    102  O         68.1590   67.2960    4.5680 O.2   195  THR195     -0.2866
    103  CB        68.6830   68.6440    7.5160 C.3   195  THR195      0.1770
    104  OG1       67.9270   67.4360    7.6660 O.3   195  THR195     -0.2211
    105  CG2       68.1200   69.7200    8.4300 C.3   195  THR195      0.0375
    106  N         69.9780   65.1020    5.8740 N.3   197  ALA197     -0.1231
    107  CA        69.3300   63.9140    6.4170 C.3   197  ALA197      0.1694
    108  C         67.8780   63.8420    5.9370 C.2   197  ALA197      0.2591
    109  O         67.4370   62.8140    5.4270 O.2   197  ALA197     -0.2718
    110  CB        69.3790   63.9480    7.9430 C.3   197  ALA197      0.0304
    111  N         67.1450   64.9420    6.1000 N.am  198  MET198     -0.1979
    112  CA        65.7420   65.0070    5.6850 C.3   198  MET198      0.1605
    113  C         65.6040   64.7940    4.1800 C.2   198  MET198      0.2287
    114  O         64.7940   63.9830    3.7320 O.2   198  MET198     -0.2864
    115  CB        65.1360   66.3600    6.0810 C.3   198  MET198      0.0413
    116  CG        63.6770   66.5550    5.6670 C.3   198  MET198      0.0598
    117  SD        63.4450   67.1200    3.9640 S.3   198  MET198     -0.1393
    118  CE        62.5760   68.6340    4.2400 C.3   198  MET198      0.0692
    119  N         65.8370   61.5170    2.9370 N.3   201  ILE201     -0.1231
    120  CA        64.6470   60.7430    3.2860 C.3   201  ILE201      0.1692
    121  C         63.4930   61.0710    2.3440 C.2   201  ILE201      0.2591
    122  O         62.9580   60.1870    1.6780 O.2   201  ILE201     -0.2718
    123  CB        64.1890   61.0370    4.7310 C.3   201  ILE201      0.0266
    124  CG1       65.3070   60.6900    5.7140 C.3   201  ILE201      0.0019
    125  CG2       62.9430   60.2300    5.0560 C.3   201  ILE201      0.0020
    126  CD1       65.0230   61.1080    7.1450 C.3   201  ILE201      0.0001
    127  N         63.1100   62.3430    2.2970 N.am  202  VAL202     -0.1980
    128  CA        62.0200   62.7820    1.4330 C.3   202  VAL202      0.1595
    129  C         62.2870   62.3640   -0.0110 C.2   202  VAL202      0.2287
    130  O         61.4670   61.6850   -0.6300 O.2   202  VAL202     -0.2864
    131  CB        61.8280   64.3230    1.5070 C.3   202  VAL202      0.0276
    132  CG1       63.1390   65.0310    1.2400 C.3   202  VAL202      0.0022
    133  CG2       60.7850   64.7720    0.4980 C.3   202  VAL202      0.0022
    134  N         54.7450   62.1670    0.5300 N.3   214  ILE214     -0.1245
    135  CA        55.6170   63.0810    1.2530 C.3   214  ILE214      0.1561
    136  C         55.6610   64.4870    0.6630 C.2   214  ILE214      0.2260
    137  O         55.7030   65.4680    1.4050 O.2   214  ILE214     -0.2867
    138  CB        57.0510   62.5300    1.3060 C.3   214  ILE214      0.0252
    139  CG1       57.0220   61.0550    1.7050 C.3   214  ILE214      0.0019
    140  CG2       57.8710   63.3190    2.3160 C.3   214  ILE214      0.0019
    141  CD1       58.3330   60.3310    1.4750 C.3   214  ILE214      0.0001
    142  N         52.6060   65.9690    1.6620 N.3   217  LEU217     -0.1231
    143  CA        52.6870   66.1920    3.0960 C.3   217  LEU217      0.1693
    144  C         53.4220   67.5030    3.3620 C.2   217  LEU217      0.2591
    145  O         52.9200   68.3620    4.0820 O.2   217  LEU217     -0.2718
    146  CB        53.4240   65.0330    3.7740 C.3   217  LEU217      0.0284
    147  CG        52.8300   64.5020    5.0840 C.3   217  LEU217      0.0019
    148  CD1       53.7370   63.4140    5.6500 C.3   217  LEU217      0.0001
    149  CD2       52.6370   65.6330    6.0860 C.3   217  LEU217      0.0001
    150  N         54.6030   67.6670    2.7670 N.am  218  GLU218     -0.1979
    151  CA        55.3740   68.8890    2.9800 C.3   218  GLU218      0.1602
    152  C         54.7370   70.1290    2.3780 C.2   218  GLU218      0.2287
    153  O         54.7960   71.2020    2.9710 O.2   218  GLU218     -0.2864
    154  CB        56.8120   68.7450    2.4570 C.3   218  GLU218      0.0415
    155  CG        56.9650   68.5190    0.9720 C.3   218  GLU218      0.1163
    156  CD        58.4090   68.6820    0.5220 C.2   218  GLU218      0.3649
    157  OE1       59.2950   67.9940    1.0790 O.co2 218  GLU218     -0.2457
    158  OE2       58.6570   69.5020   -0.3870 O.co2 218  GLU218     -0.2457
    159  N         52.4960   72.2000    4.7370 N.3   221  TRP221     -0.1241
    160  CA        52.9800   73.1620    5.7140 C.3   221  TRP221      0.1605
    161  C         52.8590   74.6080    5.2620 C.2   221  TRP221      0.2264
    162  O         52.2930   75.4380    5.9720 O.2   221  TRP221     -0.2867
    163  CB        54.4300   72.8440    6.0950 C.3   221  TRP221      0.0550
    164  CG        54.5150   72.1860    7.4300 C.ar  221  TRP221      0.0003
    165  CD1       54.7040   72.7970    8.6400 C.ar  221  TRP221      0.0946
    166  CD2       54.3200   70.7980    7.7090 C.ar  221  TRP221      0.0152
    167  NE1       54.6330   71.8730    9.6510 N.ar  221  TRP221     -0.2442
    168  CE2       54.3990   70.6370    9.1080 C.ar  221  TRP221      0.0810
    169  CE3       54.0790   69.6730    6.9100 C.ar  221  TRP221      0.0012
    170  CZ2       54.2480   69.3930    9.7310 C.ar  221  TRP221      0.0191
    171  CZ3       53.9260   68.4380    7.5310 C.ar  221  TRP221      0.0001
    172  CH2       54.0120   68.3100    8.9280 C.ar  221  TRP221      0.0015
    173  N         60.9070   75.5230    3.9110 N.3   231  MET231     -0.1245
    174  CA        61.6680   74.3410    4.2950 C.3   231  MET231      0.1570
    175  C         63.1590   74.5150    4.0530 C.2   231  MET231      0.2261
    176  O         63.9740   73.7370    4.5450 O.2   231  MET231     -0.2867
    177  CB        61.1810   73.1350    3.5000 C.3   231  MET231      0.0387
    178  CG        59.7130   72.8080    3.6920 C.3   231  MET231      0.0595
    179  SD        59.2000   71.4990    2.5630 S.3   231  MET231     -0.1393
    180  CE        59.9060   70.0610    3.3200 C.3   231  MET231      0.0692
@<TRIPOS>BOND
     1   130   129    2
     2   158   156   ar
     3   129   128    1
     4   133   131    1
     5   156   155    1
     6   156   157   ar
     7   134   135    1
     8   136   135    1
     9   136   137    2
    10   155   154    1
    11   132   131    1
    12   135   138    1
    13   138   139    1
    14   138   140    1
    15   128   131    1
    16   128   127    1
    17   141   139    1
    18   142   143    1
    19   122   121    2
    20   127   121   am
    21   121   120    1
    22   152   153    2
    23   152   151    1
    24   154   151    1
    25   179   180    1
    26   179   178    1
    27   150   151    1
    28   150   144   am
    29   119   120    1
    30   143   144    1
    31   143   146    1
    32   120   123    1
    33   144   145    2
    34   177   178    1
    35   177   174    1
    36   114   113    2
    37   146   147    1
    38   173   174    1
    39   117   118    1
    40   117   116    1
    41   175   174    1
    42   175   176    2
    43   113   112    1
    44    56    55    1
    45    56    57    1
    46    55    52    1
    47   102   101    2
    48   123   125    1
    49   123   124    1
    50   159   160    1
    51    62    59    1
    52   147   148    1
    53   147   149    1
    54   101   100    1
    55   161   160    1
    56   161   162    2
    57   109   108    2
    58    99   100    1
    59   116   115    1
    60   112   115    1
    61   112   111    1
    62   124   126    1
    63   160   163    1
    64    57    51    1
    65   106   107    1
    66    58    59    1
    67    58    53   am
    68   108   111   am
    69   108   107    1
    70    59    60    1
    71    52    53    1
    72    52    51    1
    73   100   103    1
    74   163   164    1
    75    53    54    2
    76   107   110    1
    77    96    97    1
    78    96    93    1
    79    51    45   am
    80    27    26    2
    81    95    94    2
    82   169   171   ar
    83   169   166   ar
    84    26    25    1
    85    97    98    1
    86    60    61    2
    87    60    63   am
    88    94    93    1
    89   164   166   ar
    90   164   165   ar
    91   103   104    1
    92   103   105    1
    93   171   172   ar
    94   166   168   ar
    95    93    92    1
    96    98    92    1
    97    45    46    2
    98    45    44    1
    99    63    64    1
   100    25    24    1
   101    25    28    1
   102   165   167   ar
   103    44    47    1
   104    44    43    1
   105    47    48    1
   106    29    28    1
   107    29    30    1
   108   172   170   ar
   109   168   167   ar
   110   168   170   ar
   111    64    67    1
   112    64    65    1
   113    31    30    1
   114    48    49    1
   115    49    50    1
   116    67    68    1
   117    42    41   ar
   118    42    40   ar
   119    65    66    2
   120    69    68   ar
   121    69    71   ar
   122    19    18    2
   123    41    39   ar
   124    40    38   ar
   125    68    70   ar
   126    71    73   ar
   127    13    15   ar
   128    13    11   ar
   129    18    17    1
   130    39    37   ar
   131    38    37   ar
   132    70    72   ar
   133    15    14   ar
   134    11    10   ar
   135    37    36    1
   136    73    72   ar
   137    73    74    1
   138    21    20    1
   139    21    22    1
   140    20    17    1
   141    79    80    1
   142    79    76    1
   143    17    16    1
   144    16     7   am
   145    80    81    1
   146    75    76    1
   147    14    12   ar
   148    10    12   ar
   149    10     9    1
   150    36    33    1
   151    76    77    1
   152     6     7    1
   153     6     9    1
   154     6     5    1
   155     7     8    2
   156    22    23    1
   157     4     3    2
   158    81    82    1
   159    77    78    2
   160     3     5   am
   161     3     2    1
   162    33    34    1
   163    33    32    1
   164    34    35    2
   165     2     1    1
   166    90    91    1
   167    90    89    1
   168    88    89    1
   169    88    87    1
   170    87    84    1
   171    83    84    1
   172    84    85    1
   173    85    86    2
