@<TRIPOS>MOLECULE
tmp/2nshA00.pdb
 103 99 0 0 0
SMALL
GASTEIGER

@<TRIPOS>ATOM
      1  N         12.9440  -19.0300  -13.5040 N.3     9  GLY9       -0.1210
      2  CA        14.2140  -18.3250  -13.6910 C.3     9  GLY9        0.1956
      3  C         14.8760  -17.9500  -12.3820 C.2     9  GLY9        0.2615
      4  O         16.1090  -17.8020  -12.3240 O.2     9  GLY9       -0.2717
      5  N         14.0650  -17.8190  -11.3220 N.am   10  SER10      -0.1898
      6  CA        14.5330  -17.3000  -10.0410 C.3    10  SER10       0.2236
      7  C         13.7540  -17.8550   -8.8460 C.2    10  SER10       0.2368
      8  O         12.6030  -18.2370   -8.9760 O.2    10  SER10      -0.2859
      9  CB        14.4070  -15.7790  -10.0650 C.2    10  SER10       0.2368
     10  OG        13.4690  -15.2610   -9.6940 O.2    10  SER10      -0.2859
     11  N         12.6180  -16.0640   -6.5650 N.3    12  SER12      -0.1202
     12  CA        11.5140  -15.1060   -6.3620 C.3    12  SER12       0.2020
     13  C         10.2640  -15.4610   -7.1590 C.2    12  SER12       0.2618
     14  O          9.1510  -15.0700   -6.7920 O.2    12  SER12      -0.2717
     15  CB        11.9680  -13.6840   -6.6450 C.3    12  SER12       0.2103
     16  OG        12.3020  -13.4950   -8.0180 O.3    12  SER12      -0.2182
     17  N         10.4470  -16.2110   -8.2410 N.am   13  ASP13      -0.1973
     18  CA         9.3380  -16.6550   -9.0820 C.3    13  ASP13       0.1709
     19  C          8.4730  -17.7050   -8.3810 C.2    13  ASP13       0.2293
     20  O          7.3400  -17.9330   -8.8050 O.2    13  ASP13      -0.2864
     21  CB         9.8750  -17.2920  -10.3780 C.3    13  ASP13       0.1436
     22  CG        10.5240  -16.2960  -11.3030 C.2    13  ASP13       0.3671
     23  OD1       10.1960  -15.0750  -11.2460 O.co2  13  ASP13      -0.2456
     24  OD2       11.3610  -16.7380  -12.1150 O.co2  13  ASP13      -0.2456
     25  N         17.9860  -20.9040  -14.7240 N.3    37  SER37      -0.1202
     26  CA        17.9610  -19.5860  -15.3550 C.3    37  SER37       0.2020
     27  C         18.6470  -19.6150  -16.7150 C.2    37  SER37       0.2619
     28  O         19.7570  -20.1340  -16.8440 O.2    37  SER37      -0.2717
     29  CB        18.6380  -18.5700  -14.4720 C.3    37  SER37       0.2103
     30  OG        18.7800  -17.3340  -15.1500 O.3    37  SER37      -0.2182
     31  N         17.9830  -19.0650  -17.7350 N.am   38  ALA38      -0.1965
     32  CA        18.5700  -19.0080  -19.0670 C.3    38  ALA38       0.1728
     33  C         19.7340  -18.0390  -19.0120 C.2    38  ALA38       0.2616
     34  O         20.7490  -18.2180  -19.6710 O.2    38  ALA38      -0.2715
     35  CB        17.5470  -18.5350  -20.0980 C.3    38  ALA38       0.0334
     36  N         19.5780  -17.0200  -18.1990 N.am   39  GLN39      -0.1963
     37  CA        20.5610  -15.9560  -18.1360 C.3    39  GLN39       0.1733
     38  C         21.6930  -16.2290  -17.1420 C.2    39  GLN39       0.2616
     39  O         22.8590  -15.9120  -17.4180 O.2    39  GLN39      -0.2715
     40  CB        19.8430  -14.6630  -17.8290 C.3    39  GLN39       0.0408
     41  CG        18.8670  -14.3260  -18.9670 C.3    39  GLN39       0.0908
     42  CD        17.6830  -13.5190  -18.4950 C.2    39  GLN39       0.2608
     43  OE1       17.6710  -13.0330  -17.3750 O.2    39  GLN39      -0.2717
     44  NE2       16.6770  -13.3790  -19.3470 N.am   39  GLN39      -0.0878
     45  N         21.3670  -16.8200  -15.9960 N.am   40  ARG40      -0.1977
     46  CA        22.3750  -16.9490  -14.9100 C.3    40  ARG40       0.1597
     47  C         22.9770  -18.3390  -14.8870 C.2    40  ARG40       0.2287
     48  O         24.0640  -18.5280  -14.3670 O.2    40  ARG40      -0.2864
     49  CB        21.7920  -16.6050  -13.5340 C.3    40  ARG40       0.0334
     50  CG        21.1070  -15.2180  -13.4960 C.3    40  ARG40       0.0492
     51  CD        20.6610  -14.8020  -12.1220 C.3    40  ARG40       0.2205
     52  NE        20.0980  -13.4550  -12.1850 N.pl3  40  ARG40      -0.0865
     53  CZ        18.8650  -13.1330  -11.8180 C.cat  40  ARG40       0.5346
     54  NH1       18.0510  -14.0490  -11.3100 N.pl3  40  ARG40       0.1354
     55  NH2       18.4660  -11.8800  -11.9140 N.pl3  40  ARG40       0.1354
     56  N          8.9400  -17.2820  -15.8930 N.3    64  ALA64      -0.1231
     57  CA         9.9710  -16.2300  -15.8050 C.3    64  ALA64       0.1694
     58  C          9.3420  -14.8690  -15.9920 C.2    64  ALA64       0.2593
     59  O          8.2850  -14.7570  -16.5890 O.2    64  ALA64      -0.2718
     60  CB        11.0470  -16.4410  -16.8500 C.3    64  ALA64       0.0304
     61  N         10.0580  -13.8420  -15.5460 N.am   65  GLY65      -0.1942
     62  CA         9.5870  -12.4780  -15.5510 C.3    65  GLY65       0.2014
     63  C         10.5780  -11.6000  -16.2850 C.2    65  GLY65       0.2639
     64  O         11.7420  -11.9550  -16.4650 O.2    65  GLY65      -0.2714
     65  N         10.0880  -10.4670  -16.7490 N.am   66  GLY66      -0.1939
     66  CA        10.9310   -9.5180  -17.4710 C.3    66  GLY66       0.2014
     67  C         11.1780  -10.0460  -18.8550 C.2    66  GLY66       0.2639
     68  O         10.2780  -10.6460  -19.4590 O.2    66  GLY66      -0.2714
     69  N         12.3700   -9.7990  -19.3730 N.am   67  ALA67      -0.1963
     70  CA        12.8280  -10.4530  -20.6230 C.3    67  ALA67       0.1728
     71  C         12.9400  -11.9320  -20.3310 C.2    67  ALA67       0.2616
     72  O         13.9790  -12.4210  -19.8740 O.2    67  ALA67      -0.2715
     73  CB        14.1770   -9.8570  -21.1000 C.3    67  ALA67       0.0334
     74  N         11.8330  -12.6360  -20.5580 N.am   68  ALA68      -0.1963
     75  CA        11.6500  -14.0230  -20.1150 C.3    68  ALA68       0.1728
     76  C         12.1510  -15.0160  -21.1590 C.2    68  ALA68       0.2616
     77  O         11.3620  -15.4670  -21.9900 O.2    68  ALA68      -0.2715
     78  CB        10.1700  -14.2750  -19.8400 C.3    68  ALA68       0.0334
     79  N         13.4270  -15.3710  -21.1190 N.am   69  HIS69      -0.1959
     80  CA        14.0090  -16.2290  -22.1530 C.3    69  HIS69       0.1787
     81  C         13.9130  -17.7160  -21.8730 C.2    69  HIS69       0.2620
     82  O         14.0380  -18.5360  -22.7790 O.2    69  HIS69      -0.2715
     83  CB        15.4690  -15.8640  -22.3430 C.3    69  HIS69       0.0785
     84  CG        15.6660  -14.4780  -22.8730 C.ar   69  HIS69       0.0821
     85  ND1       16.8930  -13.8580  -22.8970 N.ar   69  HIS69      -0.2267
     86  CD2       14.7840  -13.5830  -23.3810 C.ar   69  HIS69       0.1154
     87  CE1       16.7680  -12.6470  -23.4090 C.ar   69  HIS69       0.1986
     88  NE2       15.4970  -12.4520  -23.7110 N.ar   69  HIS69      -0.2212
     89  N         13.7630  -18.0570  -20.6020 N.am   70  LEU70      -0.1977
     90  CA        13.7710  -19.4390  -20.1570 C.3    70  LEU70       0.1596
     91  C         12.8780  -20.4120  -20.9620 C.2    70  LEU70       0.2287
     92  O         13.3890  -21.4390  -21.4190 O.2    70  LEU70      -0.2864
     93  CB        13.4410  -19.5220  -18.6490 C.3    70  LEU70       0.0297
     94  CG        13.3570  -20.8910  -17.9850 C.3    70  LEU70       0.0022
     95  CD1       14.7020  -21.5890  -18.0480 C.3    70  LEU70       0.0001
     96  CD2       12.9550  -20.7700  -16.5290 C.3    70  LEU70       0.0001
     97  N          5.6780  -14.2750  -15.4440 N.3    87  VAL87      -0.1245
     98  CA         5.6050  -13.7650  -14.0620 C.3    87  VAL87       0.1561
     99  C          5.4010  -12.2570  -14.0700 C.2    87  VAL87       0.2260
    100  O          6.0060  -11.5510  -14.8830 O.2    87  VAL87      -0.2867
    101  CB         6.8890  -14.1570  -13.2810 C.3    87  VAL87       0.0252
    102  CG1        6.9120  -13.5300  -11.9120 C.3    87  VAL87       0.0019
    103  CG2        7.0010  -15.6690  -13.2260 C.3    87  VAL87       0.0019
@<TRIPOS>BOND
     1    88    87   ar
     2    88    86   ar
     3    87    85   ar
     4    86    84   ar
     5    85    84   ar
     6    84    83    1
     7    82    81    2
     8    83    80    1
     9    80    81    1
    10    80    79    1
    11    77    76    2
    12    81    89   am
    13    92    91    2
    14    76    79   am
    15    76    75    1
    16    73    70    1
    17    91    90    1
    18    70    71    1
    19    70    69    1
    20    89    90    1
    21    74    71   am
    22    74    75    1
    23    71    72    2
    24    90    93    1
    25    75    78    1
    26    35    32    1
    27    34    33    2
    28    68    67    2
    29    69    67   am
    30    44    42   am
    31    32    33    1
    32    32    31    1
    33    33    36   am
    34    41    42    1
    35    41    40    1
    36    67    66    1
    37    93    94    1
    38    42    43    2
    39    36    37    1
    40    37    40    1
    41    37    38    1
    42    95    94    1
    43    94    96    1
    44    31    27   am
    45    66    65    1
    46    39    38    2
    47    38    45   am
    48    60    57    1
    49    28    27    2
    50    65    63   am
    51    27    26    1
    52    59    58    2
    53    64    63    2
    54    63    62    1
    55    45    46    1
    56    58    57    1
    57    58    61   am
    58    56    57    1
    59    62    61    1
    60    97    98    1
    61    26    25    1
    62    26    29    1
    63    30    29    1
    64    46    47    1
    65    46    49    1
    66    47    48    2
    67   100    99    2
    68    99    98    1
    69    98   101    1
    70     2     1    1
    71     2     3    1
    72    49    50    1
    73    50    51    1
    74   101   103    1
    75   101   102    1
    76     3     4    2
    77     3     5   am
    78    52    51    1
    79    52    53    2
    80    24    22   ar
    81    55    53    1
    82    53    54    1
    83     5     6    1
    84    22    23   ar
    85    22    21    1
    86    21    18    1
    87     9     6    1
    88     9    10    2
    89     6     7    1
    90    18    19    1
    91    18    17    1
    92     8     7    2
    93    20    19    2
    94    17    13   am
    95    16    15    1
    96    13    14    2
    97    13    12    1
    98    15    12    1
    99    11    12    1
