@<TRIPOS>MOLECULE
tmp/2nslA00.pdb
 98 93 0 0 0
SMALL
GASTEIGER

@<TRIPOS>ATOM
      1  N         12.9840  -18.9010  -13.5770 N.3     9  GLY9       -0.1210
      2  CA        14.2260  -18.1540  -13.6420 C.3     9  GLY9        0.1956
      3  C         14.8460  -17.7420  -12.3220 C.2     9  GLY9        0.2612
      4  O         16.0650  -17.6030  -12.2380 O.2     9  GLY9       -0.2717
      5  N         14.0240  -17.5500  -11.2940 N.am   10  SER10      -0.1952
      6  CA        14.5270  -17.1320   -9.9880 C.3    10  SER10       0.1924
      7  C         13.6790  -17.6610   -8.8400 C.2    10  SER10       0.2314
      8  O         12.5000  -17.9720   -9.0170 O.2    10  SER10      -0.2863
      9  CB        14.5640  -15.6000   -9.9150 C.3    10  SER10       0.2116
     10  OG        15.0210  -15.1530   -8.6490 O.3    10  SER10      -0.2180
     11  N         12.6220  -15.9660   -6.6280 N.3    12  SER12      -0.1202
     12  CA        11.6150  -14.9370   -6.3890 C.3    12  SER12       0.2020
     13  C         10.3620  -15.2200   -7.2210 C.2    12  SER12       0.2618
     14  O          9.3230  -14.5970   -7.0160 O.2    12  SER12      -0.2717
     15  CB        12.1710  -13.5400   -6.7050 C.3    12  SER12       0.2103
     16  OG        12.5890  -13.4180   -8.0530 O.3    12  SER12      -0.2182
     17  N         10.4630  -16.1690   -8.1510 N.am   13  ASP13      -0.1973
     18  CA         9.3240  -16.5410   -8.9880 C.3    13  ASP13       0.1709
     19  C          8.4350  -17.5440   -8.2620 C.2    13  ASP13       0.2293
     20  O          7.2700  -17.7280   -8.6270 O.2    13  ASP13      -0.2864
     21  CB         9.7800  -17.1890  -10.2980 C.3    13  ASP13       0.1436
     22  CG        10.4720  -16.2180  -11.2260 C.2    13  ASP13       0.3671
     23  OD1       10.0400  -15.0460  -11.3060 O.co2  13  ASP13      -0.2456
     24  OD2       11.4390  -16.6440  -11.8940 O.co2  13  ASP13      -0.2456
     25  N         17.8490  -20.8140  -14.7350 N.3    37  SER37      -0.1202
     26  CA        17.8860  -19.5060  -15.3780 C.3    37  SER37       0.2020
     27  C         18.6780  -19.5170  -16.6660 C.2    37  SER37       0.2619
     28  O         19.8130  -19.9820  -16.7040 O.2    37  SER37      -0.2717
     29  CB        18.4880  -18.4620  -14.4410 C.3    37  SER37       0.2103
     30  OG        18.6270  -17.2220  -15.1120 O.3    37  SER37      -0.2182
     31  N         18.0680  -18.9910  -17.7200 N.am   38  ALA38      -0.1965
     32  CA        18.7150  -18.9290  -19.0160 C.3    38  ALA38       0.1728
     33  C         19.8030  -17.8730  -18.9520 C.2    38  ALA38       0.2616
     34  O         20.8140  -17.9710  -19.6390 O.2    38  ALA38      -0.2715
     35  CB        17.6970  -18.5660  -20.0920 C.3    38  ALA38       0.0334
     36  N         19.5950  -16.8720  -18.1050 N.am   39  ASN39      -0.1958
     37  CA        20.5540  -15.7860  -17.9760 C.3    39  ASN39       0.1819
     38  C         21.6650  -16.0260  -16.9610 C.2    39  ASN39       0.2621
     39  O         22.7980  -15.6030  -17.1760 O.2    39  ASN39      -0.2715
     40  CB        19.8260  -14.4820  -17.6340 C.3    39  ASN39       0.1195
     41  CG        18.8530  -14.0550  -18.7190 C.2    39  ASN39       0.2630
     42  OD1       19.2020  -14.0020  -19.9000 O.2    39  ASN39      -0.2716
     43  ND2       17.6260  -13.7440  -18.3240 N.am   39  ASN39      -0.0877
     44  N         21.3520  -16.7120  -15.8670 N.am   40  ARG40      -0.1977
     45  CA        22.3420  -16.9640  -14.8220 C.3    40  ARG40       0.1597
     46  C         22.9450  -18.3690  -14.8120 C.2    40  ARG40       0.2287
     47  O         24.0480  -18.5730  -14.2980 O.2    40  ARG40      -0.2864
     48  CB        21.7220  -16.6540  -13.4580 C.3    40  ARG40       0.0334
     49  CG        21.3680  -15.1880  -13.3030 C.3    40  ARG40       0.0492
     50  CD        20.3850  -14.9520  -12.1730 C.3    40  ARG40       0.2205
     51  NE        20.1170  -13.5240  -12.0080 N.pl3  40  ARG40      -0.0865
     52  CZ        19.0410  -13.0300  -11.4050 C.cat  40  ARG40       0.5346
     53  NH1       18.1160  -13.8510  -10.9070 N.pl3  40  ARG40       0.1354
     54  NH2       18.8990  -11.7150  -11.2850 N.pl3  40  ARG40       0.1354
     55  N          8.9170  -17.1170  -15.8240 N.3    64  ALA64      -0.1231
     56  CA         9.9340  -16.0690  -15.7320 C.3    64  ALA64       0.1694
     57  C          9.3100  -14.6880  -15.9050 C.2    64  ALA64       0.2592
     58  O          8.2500  -14.5540  -16.5150 O.2    64  ALA64      -0.2718
     59  CB        11.0080  -16.2880  -16.7910 C.3    64  ALA64       0.0304
     60  N          9.9710  -13.6690  -15.3630 N.am   65  GLY65      -0.1957
     61  CA         9.4630  -12.3130  -15.4690 C.3    65  GLY65       0.1869
     62  C         10.4100  -11.4270  -16.2470 C.2    65  GLY65       0.2309
     63  O         11.5980  -11.7510  -16.3800 O.2    65  GLY65      -0.2863
     64  N         12.2390   -9.8110  -19.3710 N.3    67  ALA67      -0.1231
     65  CA        12.6420  -10.3710  -20.6570 C.3    67  ALA67       0.1694
     66  C         12.8400  -11.8680  -20.3940 C.2    67  ALA67       0.2592
     67  O         13.9520  -12.3230  -20.1070 O.2    67  ALA67      -0.2718
     68  CB        13.9490   -9.7310  -21.1230 C.3    67  ALA67       0.0304
     69  N         11.7490  -12.6220  -20.4730 N.am   68  ALA68      -0.1966
     70  CA        11.7770  -14.0570  -20.2110 C.3    68  ALA68       0.1728
     71  C         12.3500  -14.8580  -21.3740 C.2    68  ALA68       0.2616
     72  O         11.7680  -14.9210  -22.4570 O.2    68  ALA68      -0.2715
     73  CB        10.3680  -14.5490  -19.8720 C.3    68  ALA68       0.0334
     74  N         13.4940  -15.4760  -21.1370 N.am   69  HIS69      -0.1959
     75  CA        14.1540  -16.2680  -22.1590 C.3    69  HIS69       0.1787
     76  C         14.1040  -17.7510  -21.8180 C.2    69  HIS69       0.2620
     77  O         14.2500  -18.6080  -22.6910 O.2    69  HIS69      -0.2715
     78  CB        15.6040  -15.8110  -22.2870 C.3    69  HIS69       0.0785
     79  CG        15.7420  -14.3980  -22.7530 C.ar   69  HIS69       0.0821
     80  ND1       16.9030  -13.6720  -22.5970 N.ar   69  HIS69      -0.2267
     81  CD2       14.8660  -13.5780  -23.3800 C.ar   69  HIS69       0.1154
     82  CE1       16.7360  -12.4650  -23.1060 C.ar   69  HIS69       0.1986
     83  NE2       15.5090  -12.3820  -23.5880 N.ar   69  HIS69      -0.2212
     84  N         13.8890  -18.0450  -20.5410 N.am   70  LEU70      -0.1977
     85  CA        13.8430  -19.4200  -20.0760 C.3    70  LEU70       0.1596
     86  C         12.9290  -20.3610  -20.8730 C.2    70  LEU70       0.2287
     87  O         13.3990  -21.3530  -21.4280 O.2    70  LEU70      -0.2864
     88  CB        13.4610  -19.4530  -18.5930 C.3    70  LEU70       0.0297
     89  CG        13.2570  -20.8280  -17.9590 C.3    70  LEU70       0.0022
     90  CD1       14.5360  -21.6670  -18.0410 C.3    70  LEU70       0.0001
     91  CD2       12.8260  -20.6270  -16.5160 C.3    70  LEU70       0.0001
     92  N          5.5200  -14.2320  -15.3310 N.3    87  VAL87      -0.1245
     93  CA         5.4900  -13.7580  -13.9480 C.3    87  VAL87       0.1561
     94  C          5.2360  -12.2580  -13.9910 C.2    87  VAL87       0.2260
     95  O          5.7770  -11.5620  -14.8470 O.2    87  VAL87      -0.2867
     96  CB         6.8330  -14.0350  -13.2400 C.3    87  VAL87       0.0252
     97  CG1        6.8320  -13.4520  -11.8260 C.3    87  VAL87       0.0019
     98  CG2        7.0710  -15.5330  -13.1910 C.3    87  VAL87       0.0019
@<TRIPOS>BOND
     1    83    81   ar
     2    83    82   ar
     3    81    79   ar
     4    82    80   ar
     5    79    80   ar
     6    79    78    1
     7    77    76    2
     8    72    71    2
     9    78    75    1
    10    75    76    1
    11    75    74    1
    12    76    84   am
    13    87    86    2
    14    71    74   am
    15    71    70    1
    16    68    65    1
    17    86    85    1
    18    65    66    1
    19    65    64    1
    20    84    85    1
    21    69    66   am
    22    69    70    1
    23    66    67    2
    24    70    73    1
    25    35    32    1
    26    85    88    1
    27    42    41    2
    28    34    33    2
    29    32    33    1
    30    32    31    1
    31    33    36   am
    32    41    43   am
    33    41    40    1
    34    88    89    1
    35    36    37    1
    36    90    89    1
    37    37    40    1
    38    37    38    1
    39    89    91    1
    40    31    27   am
    41    39    38    2
    42    38    44   am
    43    59    56    1
    44    28    27    2
    45    27    26    1
    46    58    57    2
    47    63    62    2
    48    62    61    1
    49    57    56    1
    50    57    60   am
    51    44    45    1
    52    55    56    1
    53    61    60    1
    54    26    25    1
    55    26    29    1
    56    92    93    1
    57    30    29    1
    58    95    94    2
    59    45    46    1
    60    45    48    1
    61    46    47    2
    62    94    93    1
    63    93    96    1
    64     2     1    1
    65     2     3    1
    66    48    49    1
    67    49    50    1
    68    96    98    1
    69    96    97    1
    70     3     4    2
    71     3     5   am
    72    50    51    1
    73    51    52    2
    74    24    22   ar
    75    52    54    1
    76    52    53    1
    77    23    22   ar
    78     5     6    1
    79    22    21    1
    80    21    18    1
    81     6     9    1
    82     6     7    1
    83     9    10    1
    84     8     7    2
    85    18    19    1
    86    18    17    1
    87    20    19    2
    88    17    13   am
    89    16    15    1
    90    13    14    2
    91    13    12    1
    92    15    12    1
    93    11    12    1
