@<TRIPOS>MOLECULE
tmp/2nssA03.pdb
 93 89 0 0 0
SMALL
GASTEIGER

@<TRIPOS>ATOM
      1  N        -10.9150    7.9640    8.0750 N.3    86  LEU86      -0.1245
      2  CA        -9.6680    7.3300    7.6940 C.3    86  LEU86       0.1561
      3  C         -8.7380    8.3560    7.0650 C.2    86  LEU86       0.2260
      4  O         -7.5460    8.3780    7.3220 O.2    86  LEU86      -0.2867
      5  CB        -9.9570    6.1410    6.7170 C.3    86  LEU86       0.0270
      6  CG        -8.7310    5.3840    6.2050 C.3    86  LEU86       0.0019
      7  CD1       -9.1000    4.0200    5.8280 C.3    86  LEU86       0.0001
      8  CD2       -7.8700    6.0990    5.0630 C.3    86  LEU86       0.0001
      9  N         -6.0970   10.4370    9.1710 N.3    89  LEU89      -0.1231
     10  CA        -5.1810    9.6040    9.8800 C.3    89  LEU89       0.1693
     11  C         -4.1230    9.0530    8.9130 C.2    89  LEU89       0.2591
     12  O         -2.9550    9.0150    9.2690 O.2    89  LEU89      -0.2718
     13  CB        -5.9180    8.4440   10.6280 C.3    89  LEU89       0.0284
     14  CG        -6.6810    8.7330   11.9240 C.3    89  LEU89       0.0019
     15  CD1       -7.3330    7.4530   12.4950 C.3    89  LEU89       0.0001
     16  CD2       -5.8080    9.3700   13.0330 C.3    89  LEU89       0.0001
     17  N         -4.5520    8.6090    7.7160 N.am   90  ALA90      -0.1980
     18  CA        -3.6500    8.3150    6.6100 C.3    90  ALA90       0.1597
     19  C         -2.7600    9.5000    6.2700 C.2    90  ALA90       0.2287
     20  O         -1.5250    9.3460    6.1480 O.2    90  ALA90      -0.2864
     21  CB        -4.4550    7.8310    5.3520 C.3    90  ALA90       0.0319
     22  N         -0.2060   10.1240    9.3000 N.3    93  HIS93      -0.1241
     23  CA         0.8300    9.0900    9.4390 C.3    93  HIS93       0.1621
     24  C          1.8780    9.0440    8.3390 C.2    93  HIS93       0.2264
     25  O          3.0240    8.7220    8.6210 O.2    93  HIS93      -0.2867
     26  CB         0.2340    7.7010    9.7860 C.3    93  HIS93       0.0745
     27  CG        -0.3880    7.6670   11.1600 C.ar   93  HIS93       0.0817
     28  ND1       -1.4530    8.4740   11.5140 N.ar   93  HIS93      -0.2268
     29  CD2       -0.0610    6.9700   12.2690 C.ar   93  HIS93       0.1154
     30  CE1       -1.7470    8.2720   12.7860 C.ar   93  HIS93       0.1986
     31  NE2       -0.9520    7.3270   13.2480 N.ar   93  HIS93      -0.2212
     32  N          5.0660    6.9930    9.0410 N.3    99  ILE99      -0.1231
     33  CA         5.0350    5.6100    9.4800 C.3    99  ILE99       0.1678
     34  C          4.8860    4.7100    8.2510 C.2    99  ILE99       0.2434
     35  O          3.8640    4.8160    7.5610 O.2    99  ILE99      -0.2733
     36  CB         3.8090    5.4350   10.3900 C.3    99  ILE99       0.0265
     37  CG1        3.8440    6.4640   11.5320 C.3    99  ILE99       0.0019
     38  CG2        3.7210    3.9710   10.9550 C.3    99  ILE99       0.0020
     39  CD1        5.1250    6.3310   12.4700 C.3    99  ILE99       0.0001
     40  N          5.8860    3.8540    7.9580 N.am  100  PRO100     -0.2718
     41  CA         5.6800    2.9380    6.8440 C.3   100  PRO100      0.1535
     42  C          4.4340    2.0000    7.0620 C.2   100  PRO100      0.2598
     43  O          4.0500    1.6580    8.2420 O.2   100  PRO100     -0.2715
     44  CB         6.9820    2.1220    6.7660 C.3   100  PRO100      0.0310
     45  CG         8.0350    2.9240    7.5620 C.3   100  PRO100      0.0237
     46  CD         7.2170    3.7080    8.5960 C.3   100  PRO100      0.0939
     47  N          3.8230    1.5950    5.9510 N.am  101  ILE101     -0.1978
     48  CA         2.5800    0.8320    6.0650 C.3   101  ILE101      0.1596
     49  C          2.8390   -0.5490    6.7140 C.2   101  ILE101      0.2287
     50  O          1.9740   -1.1000    7.3540 O.2   101  ILE101     -0.2864
     51  CB         1.7040    0.8170    4.7430 C.3   101  ILE101      0.0276
     52  CG1        0.3050    0.2670    5.0580 C.3   101  ILE101      0.0022
     53  CG2        2.3390   -0.0370    3.6480 C.3   101  ILE101      0.0022
     54  CD1       -0.6990    0.3050    3.8840 C.3   101  ILE101      0.0001
     55  N          1.6460   -0.6370   10.2580 N.3   104  LEU104     -0.1245
     56  CA         0.2060   -0.9760   10.2040 C.3   104  LEU104      0.1561
     57  C         -0.0860   -2.5140   10.1020 C.2   104  LEU104      0.2260
     58  O         -0.9500   -3.0170   10.8430 O.2   104  LEU104     -0.2867
     59  CB        -0.5250   -0.1150    9.1160 C.3   104  LEU104      0.0270
     60  CG        -2.0560   -0.1900    9.1560 C.3   104  LEU104      0.0019
     61  CD1       -2.6060    0.3290   10.4860 C.3   104  LEU104      0.0001
     62  CD2       -2.7640    0.5230    8.0120 C.3   104  LEU104      0.0001
     63  N         -9.0120   -1.8500    6.2770 N.3   138  PHE138     -0.1241
     64  CA        -8.4750   -0.6410    6.8180 C.3   138  PHE138      0.1605
     65  C         -7.0940   -0.3170    6.2000 C.2   138  PHE138      0.2264
     66  O         -6.9140    0.7870    5.6390 O.2   138  PHE138     -0.2867
     67  CB        -8.3950   -0.8310    8.3510 C.3   138  PHE138      0.0534
     68  CG        -7.6380    0.2250    9.0630 C.ar  138  PHE138     -0.0203
     69  CD1       -7.9910    1.5370    8.9420 C.ar  138  PHE138     -0.0042
     70  CD2       -6.5820   -0.1170    9.9100 C.ar  138  PHE138     -0.0042
     71  CE1       -7.2960    2.5160    9.6500 C.ar  138  PHE138     -0.0003
     72  CE2       -5.8970    0.8360   10.5900 C.ar  138  PHE138     -0.0003
     73  CZ        -6.2530    2.1780   10.4520 C.ar  138  PHE138     -0.0000
     74  N         -5.8210    2.4710    3.5160 N.3   142  ILE142     -0.1245
     75  CA        -4.5780    3.2760    3.8020 C.3   142  ILE142      0.1561
     76  C         -3.5370    3.2520    2.6780 C.2   142  ILE142      0.2260
     77  O         -2.9600    4.3150    2.2990 O.2   142  ILE142     -0.2867
     78  CB        -3.9910    2.9300    5.1840 C.3   142  ILE142      0.0252
     79  CG1       -4.9970    3.4690    6.2290 C.3   142  ILE142      0.0019
     80  CG2       -2.5400    3.4760    5.3640 C.3   142  ILE142      0.0019
     81  CD1       -4.7260    3.1130    7.6090 C.3   142  ILE142      0.0001
     82  N         -1.6460    6.2640    0.8070 N.3   146  TYR146     -0.1241
     83  CA        -0.1720    6.2470    0.7170 C.3   146  TYR146      0.1605
     84  C          0.4050    6.2860   -0.7600 C.2   146  TYR146      0.2264
     85  O          1.3550    7.0160   -1.0550 O.2   146  TYR146     -0.2867
     86  CB         0.3670    5.0350    1.4540 C.3   146  TYR146      0.0534
     87  CG         0.6030    5.2990    2.9300 C.ar  146  TYR146     -0.0201
     88  CD1       -0.3060    6.0680    3.6890 C.ar  146  TYR146     -0.0009
     89  CD2        1.6950    4.7350    3.5580 C.ar  146  TYR146     -0.0009
     90  CE1       -0.0720    6.3070    5.0680 C.ar  146  TYR146      0.0417
     91  CE2        1.9440    4.9350    4.8900 C.ar  146  TYR146      0.0417
     92  CZ         1.0600    5.7260    5.6350 C.ar  146  TYR146      0.1957
     93  OH         1.3730    5.9270    6.9210 O.3   146  TYR146     -0.2866
@<TRIPOS>BOND
     1    85    84    2
     2    84    83    1
     3    83    82    1
     4    83    86    1
     5    86    87    1
     6    77    76    2
     7    76    75    1
     8    87    89   ar
     9    87    88   ar
    10    74    75    1
    11    89    91   ar
    12    53    51    1
    13    88    90   ar
    14    75    78    1
    15    54    52    1
    16    51    52    1
    17    51    48    1
    18    91    92   ar
    19     8     6    1
    20    90    92   ar
    21    78    80    1
    22    78    79    1
    23    21    18    1
    24    92    93    1
    25    66    65    2
    26     7     6    1
    27    47    48    1
    28    47    42   am
    29    48    49    1
    30    20    19    2
    31    65    64    1
    32     6     5    1
    33    79    81    1
    34    19    18    1
    35    63    64    1
    36    18    17    1
    37    49    50    2
    38     5     2    1
    39    44    41    1
    40    44    45    1
    41    64    67    1
    42    41    42    1
    43    41    40    1
    44    42    43    2
    45     3     4    2
    46     3     2    1
    47    35    34    2
    48    45    46    1
    49     2     1    1
    50    17    11   am
    51    40    34   am
    52    40    46    1
    53    62    60    1
    54    34    33    1
    55    24    25    2
    56    24    23    1
    57    67    68    1
    58    11    12    2
    59    11    10    1
    60    69    68   ar
    61    69    71   ar
    62    32    33    1
    63    68    70   ar
    64    59    60    1
    65    59    56    1
    66    60    61    1
    67     9    10    1
    68    22    23    1
    69    23    26    1
    70    33    36    1
    71    71    73   ar
    72    26    27    1
    73    10    13    1
    74    70    72   ar
    75    57    56    1
    76    57    58    2
    77    56    55    1
    78    36    38    1
    79    36    37    1
    80    73    72   ar
    81    13    14    1
    82    27    28   ar
    83    27    29   ar
    84    28    30   ar
    85    37    39    1
    86    14    15    1
    87    14    16    1
    88    29    31   ar
    89    30    31   ar
