@<TRIPOS>MOLECULE
tmp/2nsyB02.pdb
 129 121 0 0 0
SMALL
GASTEIGER

@<TRIPOS>ATOM
      1  N         -5.3750   58.2280   32.4220 N.3   133  ASN133     -0.1240
      2  CA        -3.9920   58.7110   32.5420 C.3   133  ASN133      0.1653
      3  C         -3.1080   57.7220   33.2620 C.2   133  ASN133      0.2266
      4  O         -1.9060   57.5830   32.9420 O.2   133  ASN133     -0.2867
      5  CB        -3.9270   60.0490   33.2710 C.3   133  ASN133      0.1155
      6  CG        -4.5500   61.1040   32.3840 C.2   133  ASN133      0.2627
      7  OD1       -4.3540   61.0980   31.1600 O.2   133  ASN133     -0.2716
      8  ND2       -5.2880   62.0840   32.9060 N.am  133  ASN133     -0.0877
      9  N         -2.0210   55.4300   30.4300 N.3   136  ALA136     -0.1231
     10  CA        -0.9770   56.0180   29.6150 C.3   136  ALA136      0.1694
     11  C          0.3560   55.9950   30.3300 C.2   136  ALA136      0.2591
     12  O          1.3930   55.7400   29.6920 O.2   136  ALA136     -0.2718
     13  CB        -1.3510   57.4180   29.1570 C.3   136  ALA136      0.0304
     14  N          0.3760   56.2790   31.6440 N.am  137  ARG137     -0.1980
     15  CA         1.6190   56.2560   32.4080 C.3   137  ARG137      0.1597
     16  C          2.0830   54.8550   32.5980 C.2   137  ARG137      0.2287
     17  O          3.3290   54.6160   32.6370 O.2   137  ARG137     -0.2864
     18  CB         1.4690   57.0090   33.7160 C.3   137  ARG137      0.0334
     19  CG         1.2560   58.4820   33.4790 C.3   137  ARG137      0.0492
     20  CD         0.9710   59.2610   34.7520 C.3   137  ARG137      0.2205
     21  NE         0.9520   60.7010   34.4960 N.pl3 137  ARG137     -0.0865
     22  CZ        -0.1250   61.4730   34.5620 C.cat 137  ARG137      0.5346
     23  NH1       -1.2360   61.1400   35.2210 N.pl3 137  ARG137      0.1354
     24  NH2       -0.0090   62.7100   34.0660 N.pl3 137  ARG137      0.1354
     25  N         -0.3250   67.3020   17.9760 N.3   162  GLU162     -0.1245
     26  CA        -0.5450   66.9750   19.4020 C.3   162  GLU162      0.1567
     27  C          0.2110   67.9380   20.3020 C.2   162  GLU162      0.2260
     28  O         -0.3590   68.2650   21.3850 O.2   162  GLU162     -0.2867
     29  CB        -0.0470   65.5240   19.6570 C.3   162  GLU162      0.0388
     30  CG        -1.1130   64.4550   19.2870 C.3   162  GLU162      0.1160
     31  CD        -0.6090   63.0360   19.3140 C.2   162  GLU162      0.3649
     32  OE1        0.5460   62.8700   19.8370 O.co2 162  GLU162     -0.2457
     33  OE2       -1.2760   62.0690   18.8560 O.co2 162  GLU162     -0.2457
     34  N         -1.4530   70.0980   23.5000 N.3   166  GLY166     -0.1210
     35  CA        -1.1100   69.3560   24.7400 C.3   166  GLY166      0.1956
     36  C         -1.8940   68.0870   24.8750 C.2   166  GLY166      0.2612
     37  O         -2.2150   67.6140   25.9520 O.2   166  GLY166     -0.2717
     38  N         -2.2020   67.4590   23.6930 N.am  167  PHE167     -0.1962
     39  CA        -3.0280   66.2770   23.6540 C.3   167  PHE167      0.1771
     40  C         -2.2530   64.9980   23.8070 C.2   167  PHE167      0.2620
     41  O         -2.0010   64.2450   22.8500 O.2   167  PHE167     -0.2715
     42  CB        -3.7640   66.2660   22.2770 C.3   167  PHE167      0.0574
     43  CG        -4.9680   65.3870   22.4310 C.ar  167  PHE167     -0.0200
     44  CD1       -6.0880   65.8300   23.1100 C.ar  167  PHE167     -0.0042
     45  CD2       -4.9730   64.1090   21.9090 C.ar  167  PHE167     -0.0042
     46  CE1       -7.1980   65.0120   23.2520 C.ar  167  PHE167     -0.0003
     47  CE2       -6.0850   63.2800   22.0590 C.ar  167  PHE167     -0.0003
     48  CZ        -7.1810   63.7400   22.7250 C.ar  167  PHE167     -0.0000
     49  N         -1.7180   64.8260   24.9890 N.am  168  PHE168     -0.1960
     50  CA        -0.9470   63.6870   25.4420 C.3   168  PHE168      0.1771
     51  C         -0.9750   63.6860   26.9690 C.2   168  PHE168      0.2620
     52  O         -1.2260   64.7390   27.5950 O.2   168  PHE168     -0.2715
     53  CB         0.4860   63.6980   24.9360 C.3   168  PHE168      0.0574
     54  CG         1.3080   64.9110   25.1760 C.ar  168  PHE168     -0.0200
     55  CD1        1.3740   65.9930   24.3150 C.ar  168  PHE168     -0.0042
     56  CD2        2.1190   65.0000   26.3150 C.ar  168  PHE168     -0.0042
     57  CE1        2.2060   67.0790   24.5560 C.ar  168  PHE168     -0.0003
     58  CE2        2.8950   66.0710   26.5960 C.ar  168  PHE168     -0.0003
     59  CZ         2.9740   67.1080   25.7320 C.ar  168  PHE168     -0.0000
     60  N         -0.6760   62.5600   27.5730 N.am  169  THR169     -0.1937
     61  CA        -0.5940   62.5140   29.0460 C.3   169  THR169      0.2028
     62  C          0.8200   62.8900   29.4350 C.2   169  THR169      0.2642
     63  O          1.8190   62.2970   28.9970 O.2   169  THR169     -0.2714
     64  CB        -0.9370   61.0950   29.5130 C.3   169  THR169      0.1808
     65  OG1       -2.3170   60.8280   29.1360 O.3   169  THR169     -0.2208
     66  CG2       -0.7610   60.9500   30.9990 C.3   169  THR169      0.0379
     67  N          0.9110   63.8260   30.3650 N.am  170  LYS170     -0.1977
     68  CA         2.1970   64.2760   30.8760 C.3   170  LYS170      0.1596
     69  C          2.8860   63.1410   31.6170 C.2   170  LYS170      0.2287
     70  O          2.3060   62.4860   32.5050 O.2   170  LYS170     -0.2864
     71  CB         1.8490   65.4040   31.8830 C.3   170  LYS170      0.0298
     72  CG         3.0740   66.1890   32.3290 C.3   170  LYS170      0.0038
     73  CD         2.6750   67.3940   33.1670 C.3   170  LYS170      0.0206
     74  CE         3.8490   68.3020   33.4620 C.3   170  LYS170      0.1093
     75  NZ         3.4200   69.5230   34.2170 N.3   170  LYS170     -0.1314
     76  N          2.4410   59.0490   27.5200 N.3   173  ASP173     -0.1239
     77  CA         2.9930   59.0520   26.1580 C.3   173  ASP173      0.1674
     78  C          3.8120   60.2750   25.8620 C.2   173  ASP173      0.2266
     79  O          4.7090   60.2600   25.0290 O.2   173  ASP173     -0.2867
     80  CB         1.8830   58.8960   25.0950 C.3   173  ASP173      0.1410
     81  CG         0.7910   59.9210   25.1900 C.2   173  ASP173      0.3668
     82  OD1        0.2700   60.1780   26.2890 O.co2 173  ASP173     -0.2456
     83  OD2        0.4780   60.4920   24.0930 O.co2 173  ASP173     -0.2456
     84  N         -7.3780   58.3690   17.8660 N.3   208  THR208     -0.1203
     85  CA        -7.9520   58.0960   19.1730 C.3   208  THR208      0.1994
     86  C         -6.8000   57.7680   20.1490 C.2   208  THR208      0.2617
     87  O         -5.9590   56.9130   19.8140 O.2   208  THR208     -0.2717
     88  CB        -9.0150   56.9890   19.1230 C.3   208  THR208      0.1784
     89  OG1       -9.5710   56.8780   20.4660 O.3   208  THR208     -0.2211
     90  CG2       -8.4880   55.6160   18.7850 C.3   208  THR208      0.0376
     91  N         -6.9810   58.2620   21.3710 N.am  209  ALA209     -0.1979
     92  CA        -6.1090   57.8670   22.4690 C.3   209  ALA209      0.1597
     93  C         -6.5990   56.5750   23.0910 C.2   209  ALA209      0.2287
     94  O         -5.8240   55.9060   23.8140 O.2   209  ALA209     -0.2864
     95  CB        -5.9860   58.9240   23.5560 C.3   209  ALA209      0.0319
     96  N         -8.3570   55.7210   25.8230 N.3   211  LEU211     -0.1245
     97  CA        -8.0450   55.5410   27.2280 C.3   211  LEU211      0.1561
     98  C         -9.2240   55.2810   28.1550 C.2   211  LEU211      0.2260
     99  O         -8.9960   54.8950   29.2930 O.2   211  LEU211     -0.2867
    100  CB        -7.3260   56.8070   27.7410 C.3   211  LEU211      0.0270
    101  CG        -5.9370   57.0270   27.1260 C.3   211  LEU211      0.0019
    102  CD1       -5.4100   58.3400   27.7000 C.3   211  LEU211      0.0001
    103  CD2       -4.9490   55.9200   27.3820 C.3   211  LEU211      0.0001
    104  N        -10.2580   61.8340   19.0630 N.3   220  ASP220     -0.1239
    105  CA        -9.5520   62.9880   19.5930 C.3   220  ASP220      0.1674
    106  C        -10.3610   64.2630   19.3540 C.2   220  ASP220      0.2266
    107  O        -10.4640   65.1550   20.1840 O.2   220  ASP220     -0.2867
    108  CB        -8.2220   63.1640   18.8670 C.3   220  ASP220      0.1410
    109  CG        -7.1860   62.1240   19.1670 C.2   220  ASP220      0.3668
    110  OD1       -7.4280   61.1430   19.8830 O.co2 220  ASP220     -0.2456
    111  OD2       -6.0630   62.3290   18.6590 O.co2 220  ASP220     -0.2456
    112  N        -13.1300   65.0800   21.6880 N.3   223  GLU223     -0.1245
    113  CA       -12.5970   65.6750   22.8950 C.3   223  GLU223      0.1567
    114  C        -12.1230   67.1070   22.7000 C.2   223  GLU223      0.2260
    115  O        -12.2790   67.9500   23.5880 O.2   223  GLU223     -0.2867
    116  CB       -11.4300   64.8030   23.3660 C.3   223  GLU223      0.0388
    117  CG       -11.8680   63.6020   24.1880 C.3   223  GLU223      0.1160
    118  CD       -10.6290   62.7880   24.5490 C.2   223  GLU223      0.3649
    119  OE1       -9.7040   63.4500   25.0780 O.co2 223  GLU223     -0.2457
    120  OE2      -10.6250   61.5710   24.2840 O.co2 223  GLU223     -0.2457
    121  N          3.4160   71.2320   29.7050 N.3   258  LYS258     -0.1245
    122  CA         3.7280   69.8960   29.1780 C.3   258  LYS258      0.1561
    123  C          4.8830   69.9230   28.1960 C.2   258  LYS258      0.2260
    124  O          5.4250   68.8160   27.9030 O.2   258  LYS258     -0.2867
    125  CB         2.4700   69.3560   28.4720 C.3   258  LYS258      0.0271
    126  CG         1.2860   69.1000   29.3380 C.3   258  LYS258      0.0035
    127  CD         0.2490   68.2230   28.6370 C.3   258  LYS258      0.0206
    128  CE        -1.0340   68.1260   29.4540 C.3   258  LYS258      0.1093
    129  NZ        -1.9470   67.1540   28.7620 N.3   258  LYS258     -0.1314
@<TRIPOS>BOND
     1    84    85    1
     2    25    26    1
     3   111   109   ar
     4    90    88    1
     5    33    31   ar
     6   108   109    1
     7   108   105    1
     8   104   105    1
     9    88    85    1
    10    88    89    1
    11   109   110   ar
    12    85    86    1
    13    30    31    1
    14    30    29    1
    15    31    32   ar
    16   106   105    1
    17   106   107    2
    18    26    29    1
    19    26    27    1
    20    87    86    2
    21    86    91   am
    22    27    28    2
    23    91    92    1
    24   112   113    1
    25    45    47   ar
    26    45    43   ar
    27    47    48   ar
    28    42    43    1
    29    42    39    1
    30    43    44   ar
    31    92    93    1
    32    92    95    1
    33   114   113    1
    34   114   115    2
    35    48    46   ar
    36    41    40    2
    37   113   116    1
    38    93    94    2
    39    44    46   ar
    40   116   117    1
    41    34    35    1
    42    39    38    1
    43    39    40    1
    44    38    36   am
    45    40    49   am
    46    83    81   ar
    47   117   118    1
    48   120   118   ar
    49    55    57   ar
    50    55    54   ar
    51   118   119   ar
    52    57    59   ar
    53    35    36    1
    54    36    37    2
    55    53    54    1
    56    53    50    1
    57    49    50    1
    58    79    78    2
    59    80    81    1
    60    80    77    1
    61    54    56   ar
    62    81    82   ar
    63    50    51    1
    64    59    58   ar
    65    96    97    1
    66    78    77    1
    67    77    76    1
    68    56    58   ar
    69    51    60   am
    70    51    52    2
    71   101   103    1
    72   101   102    1
    73   101   100    1
    74    97   100    1
    75    97    98    1
    76    60    61    1
    77   124   123    2
    78    98    99    2
    79   123   122    1
    80   125   122    1
    81   125   126    1
    82   127   126    1
    83   127   128    1
    84   129   128    1
    85    63    62    2
    86    61    62    1
    87    61    64    1
    88    65    64    1
    89    13    10    1
    90   122   121    1
    91    62    67   am
    92    64    66    1
    93    10    11    1
    94    10     9    1
    95    12    11    2
    96    11    14   am
    97    67    68    1
    98    68    69    1
    99    68    71    1
   100     7     6    2
   101    69    70    2
   102    14    15    1
   103    71    72    1
   104    72    73    1
   105     6     8   am
   106     6     5    1
   107    15    16    1
   108    15    18    1
   109     1     2    1
   110     2     3    1
   111     2     5    1
   112    16    17    2
   113     4     3    2
   114    73    74    1
   115    74    75    1
   116    19    18    1
   117    19    20    1
   118    24    22    1
   119    21    22    2
   120    21    20    1
   121    22    23    1
