@<TRIPOS>MOLECULE
tmp/2nsyA01.pdb
 177 169 0 0 0
SMALL
GASTEIGER

@<TRIPOS>ATOM
      1  N         17.5120   46.4560   39.8750 N.3   129  PHE129     -0.1241
      2  CA        17.6610   47.8580   39.5130 C.3   129  PHE129      0.1605
      3  C         16.5280   48.3190   38.6090 C.2   129  PHE129      0.2264
      4  O         15.9180   49.4090   38.8570 O.2   129  PHE129     -0.2867
      5  CB        18.9700   47.9820   38.7240 C.3   129  PHE129      0.0534
      6  CG        19.3010   49.3810   38.3380 C.ar  129  PHE129     -0.0203
      7  CD1       19.9200   50.2130   39.2470 C.ar  129  PHE129     -0.0042
      8  CD2       19.0240   49.8380   37.0900 C.ar  129  PHE129     -0.0042
      9  CE1       20.2570   51.5050   38.8500 C.ar  129  PHE129     -0.0003
     10  CE2       19.3360   51.1010   36.6430 C.ar  129  PHE129     -0.0003
     11  CZ        19.9360   51.9430   37.5740 C.ar  129  PHE129     -0.0000
     12  N         13.3790   51.1860   39.4110 N.3   133  ASN133     -0.1240
     13  CA        12.8630   52.3110   38.6030 C.3   133  ASN133      0.1653
     14  C         11.3740   52.1860   38.3330 C.2   133  ASN133      0.2266
     15  O         10.6440   53.2030   38.2500 O.2   133  ASN133     -0.2867
     16  CB        13.6890   52.4210   37.3360 C.3   133  ASN133      0.1155
     17  CG        15.0680   52.9260   37.5940 C.2   133  ASN133      0.2627
     18  OD1       15.2740   53.7590   38.5060 O.2   133  ASN133     -0.2716
     19  ND2       16.0350   52.4590   36.7850 N.am  133  ASN133     -0.0877
     20  N          9.8880   53.8070   41.3910 N.3   136  ALA136     -0.1231
     21  CA         9.9430   55.2700   41.3750 C.3   136  ALA136      0.1694
     22  C          8.8960   55.8210   40.4160 C.2   136  ALA136      0.2591
     23  O          8.2240   56.8370   40.6750 O.2   136  ALA136     -0.2718
     24  CB        11.3300   55.7290   40.9710 C.3   136  ALA136      0.0304
     25  N          8.6830   55.1520   39.2470 N.am  137  ARG137     -0.1980
     26  CA         7.6610   55.6160   38.3190 C.3   137  ARG137      0.1597
     27  C          6.2680   55.3310   38.8430 C.2   137  ARG137      0.2287
     28  O          5.3410   56.0940   38.5760 O.2   137  ARG137     -0.2864
     29  CB         7.8670   54.9930   36.9420 C.3   137  ARG137      0.0334
     30  CG         9.1440   55.4850   36.2840 C.3   137  ARG137      0.0492
     31  CD         9.4910   54.8320   34.9770 C.3   137  ARG137      0.2205
     32  NE        10.6040   55.4760   34.2950 N.pl3 137  ARG137     -0.0865
     33  CZ        11.8130   54.9150   34.1050 C.cat 137  ARG137      0.5346
     34  NH1       12.0780   53.6700   34.2290 N.pl3 137  ARG137      0.1354
     35  NH2       12.7530   55.7900   33.7630 N.pl3 137  ARG137      0.1354
     36  N         21.1890   66.6340   43.3690 N.3   162  GLU162     -0.1245
     37  CA        20.6680   65.5080   42.5880 C.3   162  GLU162      0.1567
     38  C         20.6890   65.8150   41.1040 C.2   162  GLU162      0.2260
     39  O         20.9740   64.9360   40.2820 O.2   162  GLU162     -0.2867
     40  CB        19.2410   65.1620   43.0290 C.3   162  GLU162      0.0388
     41  CG        19.1670   64.3430   44.2910 C.3   162  GLU162      0.1160
     42  CD        17.7920   64.1900   44.9000 C.2   162  GLU162      0.3649
     43  OE1       16.7870   64.7010   44.2150 O.co2 162  GLU162     -0.2457
     44  OE2       17.6400   63.5940   45.9980 O.co2 162  GLU162     -0.2457
     45  N         22.3340   63.6300   37.9180 N.3   166  GLY166     -0.1210
     46  CA        21.2060   62.9180   37.3260 C.3   166  GLY166      0.1956
     47  C         20.6430   61.8090   38.1620 C.2   166  GLY166      0.2612
     48  O         20.1760   60.7690   37.6620 O.2   166  GLY166     -0.2717
     49  N         20.6890   62.0070   39.4840 N.am  167  PHE167     -0.1962
     50  CA        20.3390   60.9630   40.4440 C.3   167  PHE167      0.1771
     51  C         18.8750   60.9850   40.8240 C.2   167  PHE167      0.2620
     52  O         18.4730   61.4220   41.9060 O.2   167  PHE167     -0.2715
     53  CB        21.1460   61.1400   41.7320 C.3   167  PHE167      0.0574
     54  CG        21.2350   59.8960   42.5370 C.ar  167  PHE167     -0.0200
     55  CD1       21.9450   58.7820   42.1320 C.ar  167  PHE167     -0.0042
     56  CD2       20.5370   59.7850   43.7380 C.ar  167  PHE167     -0.0042
     57  CE1       22.0350   57.6140   42.8680 C.ar  167  PHE167     -0.0003
     58  CE2       20.6040   58.6140   44.4960 C.ar  167  PHE167     -0.0003
     59  CZ        21.3470   57.5640   44.0580 C.ar  167  PHE167     -0.0000
     60  N         18.0970   60.6620   39.8210 N.am  168  PHE168     -0.1960
     61  CA        16.6310   60.5750   39.9200 C.3   168  PHE168      0.1771
     62  C         16.2030   59.6870   38.7490 C.2   168  PHE168      0.2620
     63  O         16.9450   59.5300   37.7710 O.2   168  PHE168     -0.2715
     64  CB        15.9840   61.9390   39.8420 C.3   168  PHE168      0.0574
     65  CG        16.2440   62.7810   38.6360 C.ar  168  PHE168     -0.0200
     66  CD1       15.4480   62.7070   37.4860 C.ar  168  PHE168     -0.0042
     67  CD2       17.2230   63.7520   38.6650 C.ar  168  PHE168     -0.0042
     68  CE1       15.7200   63.5420   36.3930 C.ar  168  PHE168     -0.0003
     69  CE2       17.4700   64.5630   37.5690 C.ar  168  PHE168     -0.0003
     70  CZ        16.6970   64.4960   36.4250 C.ar  168  PHE168     -0.0000
     71  N         15.0190   59.1310   38.8570 N.am  169  THR169     -0.1937
     72  CA        14.4950   58.2980   37.7630 C.3   169  THR169      0.2028
     73  C         13.7770   59.2080   36.8130 C.2   169  THR169      0.2642
     74  O         12.8760   59.9800   37.1560 O.2   169  THR169     -0.2714
     75  CB        13.5370   57.2380   38.3400 C.3   169  THR169      0.1808
     76  OG1       14.2730   56.4140   39.2410 O.3   169  THR169     -0.2208
     77  CG2       12.9260   56.4160   37.2440 C.3   169  THR169      0.0379
     78  N         14.0740   59.1020   35.5500 N.am  170  LYS170     -0.1977
     79  CA        13.5080   59.8200   34.4180 C.3   170  LYS170      0.1596
     80  C         12.0200   59.4770   34.3580 C.2   170  LYS170      0.2287
     81  O         11.6380   58.3090   34.2260 O.2   170  LYS170     -0.2864
     82  CB        14.2270   59.4700   33.1270 C.3   170  LYS170      0.0298
     83  CG        13.8960   60.3740   31.9850 C.3   170  LYS170      0.0038
     84  CD        14.7180   60.0090   30.7480 C.3   170  LYS170      0.0206
     85  CE        14.5850   61.0320   29.6480 C.3   170  LYS170      0.1093
     86  NZ        15.5190   60.6960   28.5170 N.3   170  LYS170     -0.1314
     87  N         10.5740   60.0900   39.9870 N.3   173  ASP173     -0.1239
     88  CA        10.6630   61.2950   40.8270 C.3   173  ASP173      0.1674
     89  C         11.1140   62.5020   40.0160 C.2   173  ASP173      0.2266
     90  O         10.8330   63.6280   40.4510 O.2   173  ASP173     -0.2867
     91  CB        11.5760   61.0800   42.0520 C.3   173  ASP173      0.1410
     92  CG        12.9720   60.5890   41.6860 C.2   173  ASP173      0.3668
     93  OD1       13.1140   59.7150   40.8750 O.co2 173  ASP173     -0.2456
     94  OD2       13.8840   61.2290   42.3110 O.co2 173  ASP173     -0.2456
     95  N         19.0510   58.3600   50.8230 N.3   208  THR208     -0.1203
     96  CA        18.8200   57.0660   50.2000 C.3   208  THR208      0.1994
     97  C         17.5870   57.1730   49.2870 C.2   208  THR208      0.2617
     98  O         16.5910   57.7230   49.7390 O.2   208  THR208     -0.2717
     99  CB        18.6690   55.8830   51.2140 C.3   208  THR208      0.1784
    100  OG1       18.4900   54.6710   50.4890 O.3   208  THR208     -0.2211
    101  CG2       17.4890   56.0380   52.1470 C.3   208  THR208      0.0376
    102  N         17.7230   56.4920   48.1610 N.am  209  ALA209     -0.1979
    103  CA        16.5510   56.3380   47.2810 C.3   209  ALA209      0.1597
    104  C         15.7280   55.1450   47.7020 C.2   209  ALA209      0.2287
    105  O         14.5400   55.0850   47.3180 O.2   209  ALA209     -0.2864
    106  CB        17.0240   56.0870   45.8380 C.3   209  ALA209      0.0319
    107  N         15.3570   52.0130   46.7240 N.3   211  LEU211     -0.1245
    108  CA        14.5980   51.3740   45.6580 C.3   211  LEU211      0.1561
    109  C         14.8000   49.8730   45.4760 C.2   211  LEU211      0.2260
    110  O         14.0650   49.2250   44.7600 O.2   211  LEU211     -0.2867
    111  CB        14.8710   52.0330   44.3170 C.3   211  LEU211      0.0270
    112  CG        14.4600   53.5100   44.2150 C.3   211  LEU211      0.0019
    113  CD1       14.9090   54.0510   42.8830 C.3   211  LEU211      0.0001
    114  CD2       12.9410   53.6940   44.3760 C.3   211  LEU211      0.0001
    115  N         23.0330   56.8920   48.9760 N.3   220  ASP220     -0.1239
    116  CA        23.3250   57.4870   47.6890 C.3   220  ASP220      0.1674
    117  C         24.8300   57.4400   47.4180 C.2   220  ASP220      0.2266
    118  O         25.2470   57.2150   46.3020 O.2   220  ASP220     -0.2867
    119  CB        22.8680   58.9400   47.5350 C.3   220  ASP220      0.1410
    120  CG        21.3650   59.1570   47.6730 C.2   220  ASP220      0.3668
    121  OD1       20.6340   58.2090   47.8050 O.co2 220  ASP220     -0.2456
    122  OD2       21.0090   60.3620   47.5540 O.co2 220  ASP220     -0.2456
    123  N         26.1510   54.2750   45.9990 N.3   223  GLU223     -0.1245
    124  CA        25.8670   54.0900   44.5990 C.3   223  GLU223      0.1567
    125  C         26.6900   55.0210   43.7270 C.2   223  GLU223      0.2260
    126  O         27.1810   54.6090   42.6770 O.2   223  GLU223     -0.2867
    127  CB        24.3650   54.2970   44.3090 C.3   223  GLU223      0.0388
    128  CG        24.0700   53.8370   42.8900 C.3   223  GLU223      0.1160
    129  CD        22.6150   53.8070   42.4820 C.2   223  GLU223      0.3649
    130  OE1       21.7190   54.2790   43.2060 O.co2 223  GLU223     -0.2457
    131  OE2       22.3480   53.2600   41.3610 O.co2 223  GLU223     -0.2457
    132  N         26.6960   63.0410   30.7990 N.3   254  MET254     -0.1245
    133  CA        25.9820   61.8110   30.4850 C.3   254  MET254      0.1570
    134  C         24.5090   61.8630   30.7610 C.2   254  MET254      0.2261
    135  O         23.7410   61.1630   30.1000 O.2   254  MET254     -0.2867
    136  CB        26.5990   60.6870   31.2800 C.3   254  MET254      0.0387
    137  CG        28.0240   60.3560   30.8120 C.3   254  MET254      0.0595
    138  SD        28.6570   58.9470   31.7780 S.3   254  MET254     -0.1393
    139  CE        27.1790   57.9440   31.8730 C.3   254  MET254      0.0692
    140  N         20.2940   64.4750   29.0870 N.3   257  HIS257     -0.1226
    141  CA        18.9660   64.1250   28.5690 C.3   257  HIS257      0.1752
    142  C         17.9020   64.1690   29.6420 C.2   257  HIS257      0.2595
    143  O         16.7140   64.4080   29.3620 O.2   257  HIS257     -0.2718
    144  CB        19.0550   62.7200   27.9390 C.3   257  HIS257      0.0759
    145  CG        19.2470   61.5790   28.8910 C.ar  257  HIS257      0.0818
    146  ND1       20.4570   61.1430   29.3890 N.ar  257  HIS257     -0.2268
    147  CD2       18.2380   60.8420   29.4070 C.ar  257  HIS257      0.1154
    148  CE1       20.1520   60.1310   30.2030 C.ar  257  HIS257      0.1986
    149  NE2       18.8300   59.9490   30.2180 N.ar  257  HIS257     -0.2212
    150  N         18.2840   63.9640   30.9040 N.am  258  LYS258     -0.1980
    151  CA        17.3360   64.0020   32.0060 C.3   258  LYS258      0.1596
    152  C         16.9010   65.4010   32.3880 C.2   258  LYS258      0.2287
    153  O         15.8800   65.5690   33.0470 O.2   258  LYS258     -0.2864
    154  CB        17.8560   63.3000   33.2660 C.3   258  LYS258      0.0298
    155  CG        18.1270   61.8330   33.0580 C.3   258  LYS258      0.0038
    156  CD        18.3090   61.2130   34.4550 C.3   258  LYS258      0.0206
    157  CE        18.7040   59.7590   34.3790 C.3   258  LYS258      0.1093
    158  NZ        18.8010   59.1970   35.7260 N.3   258  LYS258     -0.1314
    159  N         14.4580   64.6920   23.1400 N.3   263  ALA263     -0.1245
    160  CA        15.2390   65.2510   22.0630 C.3   263  ALA263      0.1562
    161  C         14.5820   65.1390   20.6950 C.2   263  ALA263      0.2260
    162  O         13.9790   64.1030   20.3490 O.2   263  ALA263     -0.2867
    163  CB        16.6010   64.5150   22.0210 C.3   263  ALA263      0.0290
    164  N         21.7470   70.3380   21.4300 N.3   269  TRP269     -0.1241
    165  CA        22.4920   70.0990   22.6920 C.3   269  TRP269      0.1605
    166  C         23.1440   68.7490   22.7130 C.2   269  TRP269      0.2264
    167  O         24.1390   68.4750   23.4110 O.2   269  TRP269     -0.2867
    168  CB        21.6660   70.3450   23.9550 C.3   269  TRP269      0.0550
    169  CG        20.4800   69.4290   24.1000 C.ar  269  TRP269      0.0003
    170  CD1       19.1790   69.7350   23.7620 C.ar  269  TRP269      0.0946
    171  CD2       20.4910   68.0960   24.6090 C.ar  269  TRP269      0.0152
    172  NE1       18.3880   68.6330   24.0220 N.ar  269  TRP269     -0.2442
    173  CE2       19.1640   67.6430   24.5180 C.ar  269  TRP269      0.0810
    174  CE3       21.4620   67.2430   25.1330 C.ar  269  TRP269      0.0012
    175  CZ2       18.7660   66.3450   24.9290 C.ar  269  TRP269      0.0191
    176  CZ3       21.0940   65.9730   25.5190 C.ar  269  TRP269      0.0001
    177  CH2       19.7940   65.5500   25.3960 C.ar  269  TRP269      0.0015
@<TRIPOS>BOND
     1   162   161    2
     2   161   160    1
     3   164   165    1
     4   163   160    1
     5   160   159    1
     6   165   166    1
     7   165   168    1
     8   166   167    2
     9   170   172   ar
    10   170   169   ar
    11   168   169    1
    12   172   173   ar
    13   169   171   ar
    14   173   171   ar
    15   173   175   ar
    16   171   174   ar
    17   175   177   ar
    18   174   176   ar
    19   177   176   ar
    20   144   141    1
    21   144   145    1
    22    86    85    1
    23   141   140    1
    24   141   142    1
    25   145   146   ar
    26   145   147   ar
    27   143   142    2
    28   146   148   ar
    29   147   149   ar
    30   142   150   am
    31    85    84    1
    32   135   134    2
    33   148   149   ar
    34   133   134    1
    35   133   132    1
    36   133   136    1
    37    84    83    1
    38   137   136    1
    39   137   138    1
    40   150   151    1
    41   138   139    1
    42    83    82    1
    43   151   152    1
    44   151   154    1
    45   152   153    2
    46   155   154    1
    47   155   156    1
    48    82    79    1
    49    35    33    1
    50    33    34    1
    51    33    32    2
    52    81    80    2
    53    32    31    1
    54    80    79    1
    55   157   156    1
    56   157   158    1
    57    79    78    1
    58    31    30    1
    59    78    73   am
    60    30    29    1
    61    68    70   ar
    62    68    66   ar
    63    70    69   ar
    64    10     8   ar
    65    10    11   ar
    66    19    17   am
    67    73    74    2
    68    73    72    1
    69    29    26    1
    70     8     6   ar
    71    77    75    1
    72    46    45    1
    73    46    47    1
    74    16    17    1
    75    16    13    1
    76    66    65   ar
    77    69    67   ar
    78    11     9   ar
    79    17    18    2
    80    48    47    2
    81    72    75    1
    82    72    71    1
    83    63    62    2
    84    47    49   am
    85    15    14    2
    86    26    27    1
    87    26    25    1
    88    14    13    1
    89     6     5    1
    90     6     7   ar
    91    75    76    1
    92    28    27    2
    93    13    12    1
    94     3     4    2
    95     3     2    1
    96    65    67   ar
    97    65    64    1
    98     5     2    1
    99    62    71   am
   100    62    61    1
   101     9     7   ar
   102    25    22   am
   103    49    50    1
   104     2     1    1
   105    60    61    1
   106    60    51   am
   107    64    61    1
   108    87    88    1
   109    89    90    2
   110    89    88    1
   111    39    38    2
   112    22    23    2
   113    22    21    1
   114    50    51    1
   115    50    53    1
   116    51    52    2
   117    88    91    1
   118    93    92   ar
   119    24    21    1
   120    38    37    1
   121   131   129   ar
   122    21    20    1
   123    92    91    1
   124    92    94   ar
   125    53    54    1
   126    55    54   ar
   127    55    57   ar
   128   129   128    1
   129   129   130   ar
   130    54    56   ar
   131    37    40    1
   132    37    36    1
   133   126   125    2
   134    57    59   ar
   135   113   112    1
   136   128   127    1
   137    40    41    1
   138   125   124    1
   139    56    58   ar
   140    59    58   ar
   141    43    42   ar
   142   112   111    1
   143   112   114    1
   144    41    42    1
   145   127   124    1
   146   111   108    1
   147   124   123    1
   148   110   109    2
   149    42    44   ar
   150   109   108    1
   151   108   107    1
   152   106   103    1
   153   118   117    2
   154   103   104    1
   155   103   102    1
   156   105   104    2
   157   117   116    1
   158   119   120    1
   159   119   116    1
   160   122   120   ar
   161   120   121   ar
   162   116   115    1
   163   102    97   am
   164    97    98    2
   165    97    96    1
   166    96    95    1
   167    96    99    1
   168   100    99    1
   169    99   101    1
