@<TRIPOS>MOLECULE
tmp/2nsyA02.pdb
 80 74 0 0 0
SMALL
GASTEIGER

@<TRIPOS>ATOM
      1  N          8.9170   60.9200   52.0580 N.3    46  SER46      -0.1217
      2  CA         9.6820   59.6940   52.2440 C.3    46  SER46       0.1889
      3  C         10.2950   59.4860   53.5940 C.2    46  SER46       0.2288
      4  O         10.6850   58.3470   53.8660 O.2    46  SER46      -0.2866
      5  CB        10.8220   59.6310   51.2330 C.3    46  SER46       0.2089
      6  OG        11.7650   60.6510   51.5560 O.3    46  SER46      -0.2183
      7  N         13.0510   61.3290   54.0650 N.3    48  GLY48      -0.1210
      8  CA        14.3420   61.8900   53.7360 C.3    48  GLY48       0.1956
      9  C         14.3240   63.4090   53.8030 C.2    48  GLY48       0.2612
     10  O         13.2950   64.0670   53.9400 O.2    48  GLY48      -0.2717
     11  N         15.5050   64.0070   53.6710 N.am   49  GLN49      -0.1965
     12  CA        15.6590   65.4400   53.8560 C.3    49  GLN49       0.1733
     13  C         14.8900   66.2660   52.8370 C.2    49  GLN49       0.2616
     14  O         14.2950   67.2810   53.1390 O.2    49  GLN49      -0.2715
     15  CB        17.1260   65.8270   53.7760 C.3    49  GLN49       0.0408
     16  CG        17.5190   67.2720   53.5990 C.3    49  GLN49       0.0908
     17  CD        19.0650   67.3170   53.4380 C.2    49  GLN49       0.2608
     18  OE1       19.8070   66.5470   54.0990 O.2    49  GLN49      -0.2717
     19  NE2       19.3800   68.2320   52.5810 N.am   49  GLN49      -0.0878
     20  N         14.8980   65.8290   51.5750 N.am   50  ASP50      -0.1957
     21  CA        14.4150   66.7040   50.4950 C.3    50  ASP50       0.1840
     22  C         12.8960   66.8460   50.5340 C.2    50  ASP50       0.2622
     23  O         12.4040   67.9790   50.4370 O.2    50  ASP50      -0.2715
     24  CB        14.8690   66.2270   49.1210 C.3    50  ASP50       0.1450
     25  CG        16.3420   65.9350   49.0060 C.2    50  ASP50       0.3671
     26  OD1       17.1400   66.6010   49.7080 O.co2  50  ASP50      -0.2456
     27  OD2       16.7170   65.0520   48.1940 O.co2  50  ASP50      -0.2456
     28  N         12.2230   65.7300   50.6950 N.am   51  SER51      -0.1950
     29  CA        10.7640   65.8080   50.7940 C.3    51  SER51       0.1924
     30  C         10.3320   66.4120   52.1080 C.2    51  SER51       0.2314
     31  O          9.2730   67.0310   52.1510 O.2    51  SER51      -0.2863
     32  CB        10.1530   64.4660   50.4990 C.3    51  SER51       0.2116
     33  OG        10.5560   63.4240   51.4090 O.3    51  SER51      -0.2180
     34  N         11.0200   67.1750   44.1550 N.3   157  THR157     -0.1218
     35  CA        12.0290   67.4970   45.1650 C.3   157  THR157      0.1862
     36  C         13.4220   67.5990   44.5770 C.2   157  THR157      0.2287
     37  O         14.4110   67.7320   45.3110 O.2   157  THR157     -0.2866
     38  CB        12.0060   66.4880   46.3390 C.3   157  THR157      0.1770
     39  OG1       12.2970   65.2210   45.8080 O.3   157  THR157     -0.2211
     40  CG2       10.6270   66.5600   46.9880 C.3   157  THR157      0.0375
     41  N         21.1890   66.6340   43.3690 N.3   162  GLU162     -0.1245
     42  CA        20.6680   65.5080   42.5880 C.3   162  GLU162      0.1567
     43  C         20.6890   65.8150   41.1040 C.2   162  GLU162      0.2260
     44  O         20.9740   64.9360   40.2820 O.2   162  GLU162     -0.2867
     45  CB        19.2410   65.1620   43.0290 C.3   162  GLU162      0.0388
     46  CG        19.1670   64.3430   44.2910 C.3   162  GLU162      0.1160
     47  CD        17.7920   64.1900   44.9000 C.2   162  GLU162      0.3649
     48  OE1       16.7870   64.7010   44.2150 O.co2 162  GLU162     -0.2457
     49  OE2       17.6400   63.5940   45.9980 O.co2 162  GLU162     -0.2457
     50  N         23.0320   70.1830   48.8000 N.3   186  LYS186     -0.1245
     51  CA        22.5220   69.3060   49.8920 C.3   186  LYS186      0.1561
     52  C         22.6840   69.9460   51.2490 C.2   186  LYS186      0.2260
     53  O         21.7430   70.0380   52.0520 O.2   186  LYS186     -0.2867
     54  CB        23.1750   67.9390   49.8630 C.3   186  LYS186      0.0271
     55  CG        22.4740   66.8230   50.5950 C.3   186  LYS186      0.0035
     56  CD        21.1380   66.4480   49.9110 C.3   186  LYS186      0.0206
     57  CE        20.5530   65.2250   50.5460 C.3   186  LYS186      0.1093
     58  NZ        19.2860   64.7910   49.8880 N.3   186  LYS186     -0.1314
     59  N         21.2460   60.1240   53.0170 N.3   207  PRO207     -0.2102
     60  CA        20.3620   60.1580   51.8260 C.3   207  PRO207      0.1504
     61  C         20.2530   58.7560   51.2460 C.2   207  PRO207      0.2576
     62  O         21.2840   58.0760   51.0780 O.2   207  PRO207     -0.2718
     63  CB        21.0580   61.1230   50.9060 C.3   207  PRO207      0.0282
     64  CG        21.7060   62.0740   51.8510 C.3   207  PRO207      0.0208
     65  CD        22.2520   61.1900   52.9660 C.3   207  PRO207      0.0893
     66  N         19.0510   58.3600   50.8230 N.am  208  THR208     -0.1953
     67  CA        18.8200   57.0660   50.2000 C.3   208  THR208      0.1897
     68  C         17.5870   57.1730   49.2870 C.2   208  THR208      0.2313
     69  O         16.5910   57.7230   49.7390 O.2   208  THR208     -0.2863
     70  CB        18.6690   55.8830   51.2140 C.3   208  THR208      0.1794
     71  OG1       18.4900   54.6710   50.4890 O.3   208  THR208     -0.2208
     72  CG2       17.4890   56.0380   52.1470 C.3   208  THR208      0.0378
     73  N         23.0330   56.8920   48.9760 N.3   220  ASP220     -0.1239
     74  CA        23.3250   57.4870   47.6890 C.3   220  ASP220      0.1674
     75  C         24.8300   57.4400   47.4180 C.2   220  ASP220      0.2266
     76  O         25.2470   57.2150   46.3020 O.2   220  ASP220     -0.2867
     77  CB        22.8680   58.9400   47.5350 C.3   220  ASP220      0.1410
     78  CG        21.3650   59.1570   47.6730 C.2   220  ASP220      0.3668
     79  OD1       20.6340   58.2090   47.8050 O.co2 220  ASP220     -0.2456
     80  OD2       21.0090   60.3620   47.5540 O.co2 220  ASP220     -0.2456
@<TRIPOS>BOND
     1    44    43    2
     2    43    42    1
     3    42    45    1
     4    42    41    1
     5    45    46    1
     6    34    35    1
     7    48    47   ar
     8    46    47    1
     9    36    35    1
    10    36    37    2
    11    47    49   ar
    12    35    38    1
    13    39    38    1
    14    76    75    2
    15    38    40    1
    16    75    74    1
    17    77    78    1
    18    77    74    1
    19    80    78   ar
    20    78    79   ar
    21    74    73    1
    22    27    25   ar
    23    50    51    1
    24    25    24    1
    25    25    26   ar
    26    24    21    1
    27    68    69    2
    28    68    67    1
    29    54    51    1
    30    54    55    1
    31    58    57    1
    32    51    52    1
    33    56    57    1
    34    56    55    1
    35    67    66    1
    36    67    70    1
    37    23    22    2
    38    71    70    1
    39    21    22    1
    40    21    20    1
    41    32    29    1
    42    32    33    1
    43    22    28   am
    44    28    29    1
    45    29    30    1
    46    66    61   am
    47    63    60    1
    48    63    64    1
    49    62    61    2
    50    70    72    1
    51     5     6    1
    52     5     2    1
    53    61    60    1
    54    52    53    2
    55    20    13   am
    56    60    59    1
    57    64    65    1
    58     1     2    1
    59    30    31    2
    60     2     3    1
    61    19    17   am
    62    13    14    2
    63    13    12    1
    64    65    59    1
    65    17    16    1
    66    17    18    2
    67     3     4    2
    68    16    15    1
    69    11     9   am
    70    11    12    1
    71     8     9    1
    72     8     7    1
    73    15    12    1
    74     9    10    2
