@<TRIPOS>MOLECULE
tmp/2nsyA00.pdb
 170 160 0 0 0
SMALL
GASTEIGER

@<TRIPOS>ATOM
      1  N          2.5300   65.8270   47.4690 N.3    43  LEU43      -0.1231
      2  CA         3.9280   65.4150   47.4530 C.3    43  LEU43       0.1693
      3  C          4.1140   64.1580   48.2590 C.2    43  LEU43       0.2593
      4  O          3.6490   64.0570   49.4190 O.2    43  LEU43      -0.2718
      5  CB         4.8050   66.5380   48.0570 C.3    43  LEU43       0.0284
      6  CG         6.2920   66.1420   48.1940 C.3    43  LEU43       0.0019
      7  CD1        6.9520   65.8750   46.8500 C.3    43  LEU43       0.0001
      8  CD2        7.0490   67.2700   48.9090 C.3    43  LEU43       0.0001
      9  N          4.8740   63.2250   47.7260 N.am   44  GLY44      -0.1942
     10  CA         5.3470   62.0350   48.4500 C.3    44  GLY44       0.2014
     11  C          6.3100   62.4230   49.5560 C.2    44  GLY44       0.2639
     12  O          7.3600   63.0760   49.2580 O.2    44  GLY44      -0.2714
     13  N          6.0660   62.0350   50.7790 N.am   45  ILE45      -0.1963
     14  CA         6.9340   62.2800   51.9440 C.3    45  ILE45       0.1727
     15  C          7.6290   61.0050   52.3340 C.2    45  ILE45       0.2616
     16  O          6.9730   60.0480   52.7680 O.2    45  ILE45      -0.2715
     17  CB         6.0560   62.7840   53.0960 C.3    45  ILE45       0.0290
     18  CG1        5.3470   64.0680   52.6590 C.3    45  ILE45       0.0022
     19  CG2        6.8520   62.9820   54.3790 C.3    45  ILE45       0.0023
     20  CD1        6.2560   65.1810   52.1110 C.3    45  ILE45       0.0001
     21  N          8.9170   60.9200   52.0580 N.am   46  SER46      -0.1950
     22  CA         9.6820   59.6940   52.2440 C.3    46  SER46       0.1924
     23  C         10.2950   59.4860   53.5940 C.2    46  SER46       0.2314
     24  O         10.6850   58.3470   53.8660 O.2    46  SER46      -0.2863
     25  CB        10.8220   59.6310   51.2330 C.3    46  SER46       0.2116
     26  OG        11.7650   60.6510   51.5560 O.3    46  SER46      -0.2180
     27  N         14.8980   65.8290   51.5750 N.3    50  ASP50      -0.1225
     28  CA        14.4150   66.7040   50.4950 C.3    50  ASP50       0.1805
     29  C         12.8960   66.8460   50.5340 C.2    50  ASP50       0.2598
     30  O         12.4040   67.9790   50.4370 O.2    50  ASP50      -0.2718
     31  CB        14.8690   66.2270   49.1210 C.3    50  ASP50       0.1424
     32  CG        16.3420   65.9350   49.0060 C.2    50  ASP50       0.3668
     33  OD1       17.1400   66.6010   49.7080 O.co2  50  ASP50      -0.2456
     34  OD2       16.7170   65.0520   48.1940 O.co2  50  ASP50      -0.2456
     35  N         12.2230   65.7300   50.6950 N.am   51  SER51      -0.1952
     36  CA        10.7640   65.8080   50.7940 C.3    51  SER51       0.1924
     37  C         10.3320   66.4120   52.1080 C.2    51  SER51       0.2314
     38  O          9.2730   67.0310   52.1510 O.2    51  SER51      -0.2863
     39  CB        10.1530   64.4660   50.4990 C.3    51  SER51       0.2116
     40  OG        10.5560   63.4240   51.4090 O.3    51  SER51      -0.2180
     41  N          2.3280   59.2840   52.0150 N.3    78  ARG78      -0.1231
     42  CA         3.2660   58.2310   52.2910 C.3    78  ARG78       0.1694
     43  C          3.1980   57.2200   51.1290 C.2    78  ARG78       0.2591
     44  O          2.0780   56.8420   50.7630 O.2    78  ARG78      -0.2718
     45  CB         2.9480   57.5080   53.6110 C.3    78  ARG78       0.0321
     46  CG         3.2680   58.3160   54.8400 C.3    78  ARG78       0.0489
     47  CD         4.7520   58.4560   55.0870 C.3    78  ARG78       0.2205
     48  NE         5.3970   57.1480   55.1620 N.pl3  78  ARG78      -0.0865
     49  CZ         6.1350   56.5430   54.2570 C.cat  78  ARG78       0.5346
     50  NH1        6.5610   57.2600   53.1940 N.pl3  78  ARG78       0.1354
     51  NH2        6.3860   55.2540   54.3170 N.pl3  78  ARG78       0.1354
     52  N          4.3260   56.7780   50.5610 N.am   79  LEU79      -0.1980
     53  CA         4.3230   55.8850   49.4220 C.3    79  LEU79       0.1596
     54  C          5.2390   54.7130   49.6730 C.2    79  LEU79       0.2287
     55  O          6.1860   54.4150   48.9110 O.2    79  LEU79      -0.2864
     56  CB         4.7510   56.6110   48.1310 C.3    79  LEU79       0.0297
     57  CG         3.8610   57.7940   47.7630 C.3    79  LEU79       0.0022
     58  CD1        4.4750   58.6480   46.6620 C.3    79  LEU79       0.0001
     59  CD2        2.4880   57.2800   47.2810 C.3    79  LEU79       0.0001
     60  N          8.1570   49.8950   54.8820 N.3    84  GLN84      -0.1245
     61  CA         9.3330   50.7460   54.6480 C.3    84  GLN84       0.1566
     62  C         10.1650   50.7340   55.9340 C.2    84  GLN84       0.2260
     63  O          9.6560   51.0220   57.0020 O.2    84  GLN84      -0.2867
     64  CB         8.8530   52.1730   54.3350 C.3    84  GLN84       0.0367
     65  CG        10.0400   53.0670   53.9390 C.3    84  GLN84       0.0905
     66  CD         9.5830   54.4320   53.4370 C.2    84  GLN84       0.2608
     67  OE1        8.5300   54.5590   52.7900 O.2    84  GLN84      -0.2717
     68  NE2       10.4130   55.4300   53.7320 N.am   84  GLN84      -0.0878
     69  N          5.4120   55.5540   41.9780 N.3   139  ARG139     -0.1245
     70  CA         5.1860   56.6860   42.8840 C.3   139  ARG139      0.1563
     71  C          4.7490   57.9150   42.1320 C.2   139  ARG139      0.2260
     72  O          3.8790   58.6620   42.6160 O.2   139  ARG139     -0.2867
     73  CB         6.4440   56.9380   43.6970 C.3   139  ARG139      0.0307
     74  CG         6.7160   55.8640   44.7280 C.3   139  ARG139      0.0489
     75  CD         7.6990   56.2930   45.8020 C.3   139  ARG139      0.2205
     76  NE         7.8990   55.2780   46.8410 N.pl3 139  ARG139     -0.0865
     77  CZ         8.7710   54.3030   46.7860 C.cat 139  ARG139      0.5346
     78  NH1        9.6930   54.2260   45.8540 N.pl3 139  ARG139      0.1354
     79  NH2        8.6800   53.3100   47.6700 N.pl3 139  ARG139      0.1354
     80  N          1.0940   59.8710   42.7660 N.3   143  GLN143     -0.1245
     81  CA         0.9670   61.3000   43.0700 C.3   143  GLN143      0.1566
     82  C          0.1180   61.9860   42.0170 C.2   143  GLN143      0.2260
     83  O         -0.6820   62.8680   42.3470 O.2   143  GLN143     -0.2867
     84  CB         2.3530   61.9620   43.2110 C.3   143  GLN143      0.0367
     85  CG         3.0550   61.4930   44.4750 C.3   143  GLN143      0.0905
     86  CD         4.5550   61.7480   44.4330 C.2   143  GLN143      0.2608
     87  OE1        5.3170   60.8250   43.9700 O.2   143  GLN143     -0.2717
     88  NE2        4.9220   62.8770   44.8850 N.am  143  GLN143     -0.0878
     89  N         11.0200   67.1750   44.1550 N.3   157  THR157     -0.1218
     90  CA        12.0290   67.4970   45.1650 C.3   157  THR157      0.1862
     91  C         13.4220   67.5990   44.5770 C.2   157  THR157      0.2287
     92  O         14.4110   67.7320   45.3110 O.2   157  THR157     -0.2866
     93  CB        12.0060   66.4880   46.3390 C.3   157  THR157      0.1770
     94  OG1       12.2970   65.2210   45.8080 O.3   157  THR157     -0.2211
     95  CG2       10.6270   66.5600   46.9880 C.3   157  THR157      0.0375
     96  N         21.1890   66.6340   43.3690 N.3   162  GLU162     -0.1245
     97  CA        20.6680   65.5080   42.5880 C.3   162  GLU162      0.1567
     98  C         20.6890   65.8150   41.1040 C.2   162  GLU162      0.2260
     99  O         20.9740   64.9360   40.2820 O.2   162  GLU162     -0.2867
    100  CB        19.2410   65.1620   43.0290 C.3   162  GLU162      0.0388
    101  CG        19.1670   64.3430   44.2910 C.3   162  GLU162      0.1160
    102  CD        17.7920   64.1900   44.9000 C.2   162  GLU162      0.3649
    103  OE1       16.7870   64.7010   44.2150 O.co2 162  GLU162     -0.2457
    104  OE2       17.6400   63.5940   45.9980 O.co2 162  GLU162     -0.2457
    105  N         20.6890   62.0070   39.4840 N.3   167  PHE167     -0.1227
    106  CA        20.3390   60.9630   40.4440 C.3   167  PHE167      0.1736
    107  C         18.8750   60.9850   40.8240 C.2   167  PHE167      0.2595
    108  O         18.4730   61.4220   41.9060 O.2   167  PHE167     -0.2718
    109  CB        21.1460   61.1400   41.7320 C.3   167  PHE167      0.0547
    110  CG        21.2350   59.8960   42.5370 C.ar  167  PHE167     -0.0202
    111  CD1       21.9450   58.7820   42.1320 C.ar  167  PHE167     -0.0042
    112  CD2       20.5370   59.7850   43.7380 C.ar  167  PHE167     -0.0042
    113  CE1       22.0350   57.6140   42.8680 C.ar  167  PHE167     -0.0003
    114  CE2       20.6040   58.6140   44.4960 C.ar  167  PHE167     -0.0003
    115  CZ        21.3470   57.5640   44.0580 C.ar  167  PHE167     -0.0000
    116  N         18.0970   60.6620   39.8210 N.am  168  PHE168     -0.1976
    117  CA        16.6310   60.5750   39.9200 C.3   168  PHE168      0.1639
    118  C         16.2030   59.6870   38.7490 C.2   168  PHE168      0.2290
    119  O         16.9450   59.5300   37.7710 O.2   168  PHE168     -0.2864
    120  CB        15.9840   61.9390   39.8420 C.3   168  PHE168      0.0560
    121  CG        16.2440   62.7810   38.6360 C.ar  168  PHE168     -0.0200
    122  CD1       15.4480   62.7070   37.4860 C.ar  168  PHE168     -0.0042
    123  CD2       17.2230   63.7520   38.6650 C.ar  168  PHE168     -0.0042
    124  CE1       15.7200   63.5420   36.3930 C.ar  168  PHE168     -0.0003
    125  CE2       17.4700   64.5630   37.5690 C.ar  168  PHE168     -0.0003
    126  CZ        16.6970   64.4960   36.4250 C.ar  168  PHE168     -0.0000
    127  N         10.5740   60.0900   39.9870 N.3   173  ASP173     -0.1239
    128  CA        10.6630   61.2950   40.8270 C.3   173  ASP173      0.1674
    129  C         11.1140   62.5020   40.0160 C.2   173  ASP173      0.2266
    130  O         10.8330   63.6280   40.4510 O.2   173  ASP173     -0.2867
    131  CB        11.5760   61.0800   42.0520 C.3   173  ASP173      0.1410
    132  CG        12.9720   60.5890   41.6860 C.2   173  ASP173      0.3668
    133  OD1       13.1140   59.7150   40.8750 O.co2 173  ASP173     -0.2456
    134  OD2       13.8840   61.2290   42.3110 O.co2 173  ASP173     -0.2456
    135  N         19.0510   58.3600   50.8230 N.3   208  THR208     -0.1203
    136  CA        18.8200   57.0660   50.2000 C.3   208  THR208      0.1994
    137  C         17.5870   57.1730   49.2870 C.2   208  THR208      0.2618
    138  O         16.5910   57.7230   49.7390 O.2   208  THR208     -0.2717
    139  CB        18.6690   55.8830   51.2140 C.3   208  THR208      0.1784
    140  OG1       18.4900   54.6710   50.4890 O.3   208  THR208     -0.2211
    141  CG2       17.4890   56.0380   52.1470 C.3   208  THR208      0.0376
    142  N         17.7230   56.4920   48.1610 N.am  209  ALA209     -0.1965
    143  CA        16.5510   56.3380   47.2810 C.3   209  ALA209      0.1728
    144  C         15.7280   55.1450   47.7020 C.2   209  ALA209      0.2616
    145  O         14.5400   55.0850   47.3180 O.2   209  ALA209     -0.2715
    146  CB        17.0240   56.0870   45.8380 C.3   209  ALA209      0.0334
    147  N         16.3010   54.2050   48.4560 N.am  210  ASP210     -0.1957
    148  CA        15.7010   52.9870   48.9440 C.3   210  ASP210      0.1840
    149  C         14.8080   52.3460   47.8740 C.2   210  ASP210      0.2621
    150  O         13.6260   52.1010   48.1690 O.2   210  ASP210     -0.2715
    151  CB        14.9170   53.2060   50.2480 C.3   210  ASP210      0.1450
    152  CG        14.4060   51.9410   50.8620 C.2   210  ASP210      0.3671
    153  OD1       15.0850   50.8900   50.6860 O.co2 210  ASP210     -0.2456
    154  OD2       13.3690   51.9950   51.5150 O.co2 210  ASP210     -0.2456
    155  N         15.3570   52.0130   46.7240 N.am  211  LEU211     -0.1977
    156  CA        14.5980   51.3740   45.6580 C.3   211  LEU211      0.1596
    157  C         14.8000   49.8730   45.4760 C.2   211  LEU211      0.2287
    158  O         14.0650   49.2250   44.7600 O.2   211  LEU211     -0.2864
    159  CB        14.8710   52.0330   44.3170 C.3   211  LEU211      0.0297
    160  CG        14.4600   53.5100   44.2150 C.3   211  LEU211      0.0022
    161  CD1       14.9090   54.0510   42.8830 C.3   211  LEU211      0.0001
    162  CD2       12.9410   53.6940   44.3760 C.3   211  LEU211      0.0001
    163  N         23.0330   56.8920   48.9760 N.3   220  ASP220     -0.1239
    164  CA        23.3250   57.4870   47.6890 C.3   220  ASP220      0.1674
    165  C         24.8300   57.4400   47.4180 C.2   220  ASP220      0.2266
    166  O         25.2470   57.2150   46.3020 O.2   220  ASP220     -0.2867
    167  CB        22.8680   58.9400   47.5350 C.3   220  ASP220      0.1410
    168  CG        21.3650   59.1570   47.6730 C.2   220  ASP220      0.3668
    169  OD1       20.6340   58.2090   47.8050 O.co2 220  ASP220     -0.2456
    170  OD2       21.0090   60.3620   47.5540 O.co2 220  ASP220     -0.2456
@<TRIPOS>BOND
     1   124   126   ar
     2   124   122   ar
     3   126   125   ar
     4   122   121   ar
     5   125   123   ar
     6   119   118    2
     7   121   123   ar
     8   121   120    1
     9   118   117    1
    10   105   106    1
    11   116   117    1
    12   116   107   am
    13   120   117    1
    14   127   128    1
    15   129   130    2
    16   129   128    1
    17    99    98    2
    18   106   107    1
    19   106   109    1
    20   107   108    2
    21   128   131    1
    22   133   132   ar
    23    98    97    1
    24   132   131    1
    25   132   134   ar
    26   109   110    1
    27    69    70    1
    28    82    83    2
    29    82    81    1
    30    71    72    2
    31    71    70    1
    32   111   110   ar
    33   111   113   ar
    34   110   112   ar
    35    97   100    1
    36    97    96    1
    37    80    81    1
    38   113   115   ar
    39   161   160    1
    40    70    73    1
    41   100   101    1
    42    81    84    1
    43    84    85    1
    44    73    74    1
    45   112   114   ar
    46    87    86    2
    47   115   114   ar
    48    89    90    1
    49   160   159    1
    50   160   162    1
    51   103   102   ar
    52   101   102    1
    53   159   156    1
    54    86    85    1
    55    86    88   am
    56    91    90    1
    57    91    92    2
    58    74    75    1
    59   158   157    2
    60   102   104   ar
    61    90    93    1
    62   157   156    1
    63   156   155    1
    64    75    76    1
    65    94    93    1
    66   146   143    1
    67    78    77    1
    68   166   165    2
    69    93    95    1
    70    58    57    1
    71   155   149   am
    72    77    76    2
    73    77    79    1
    74     7     6    1
    75    59    57    1
    76   143   144    1
    77   143   142    1
    78   145   144    2
    79   165   164    1
    80     2     1    1
    81     2     5    1
    82     2     3    1
    83   167   168    1
    84   167   164    1
    85   170   168   ar
    86   168   169   ar
    87   164   163    1
    88   144   147   am
    89     9     3   am
    90     9    10    1
    91    57    56    1
    92   149   150    2
    93   149   148    1
    94     5     6    1
    95    56    53    1
    96   142   137   am
    97    34    32   ar
    98     6     8    1
    99     3     4    2
   100    10    11    1
   101   147   148    1
   102    55    54    2
   103   148   151    1
   104    32    31    1
   105    32    33   ar
   106    31    28    1
   107    12    11    2
   108   137   138    2
   109   137   136    1
   110    53    54    1
   111    53    52    1
   112    11    13   am
   113   136   135    1
   114   136   139    1
   115   151   152    1
   116    30    29    2
   117   140   139    1
   118    28    29    1
   119    28    27    1
   120    39    36    1
   121    39    40    1
   122    29    35   am
   123    52    43   am
   124   153   152   ar
   125    35    36    1
   126    44    43    2
   127    13    14    1
   128    36    37    1
   129   152   154   ar
   130    43    42    1
   131   139   141    1
   132    25    26    1
   133    25    22    1
   134    14    15    1
   135    14    17    1
   136    41    42    1
   137    21    22    1
   138    21    15   am
   139    37    38    2
   140    20    18    1
   141    22    23    1
   142    42    45    1
   143    15    16    2
   144    18    17    1
   145    67    66    2
   146    17    19    1
   147    50    49    1
   148    66    68   am
   149    66    65    1
   150    23    24    2
   151    45    46    1
   152    65    64    1
   153    49    51    1
   154    49    48    2
   155    64    61    1
   156    61    60    1
   157    61    62    1
   158    46    47    1
   159    47    48    1
   160    62    63    2
