@<TRIPOS>MOLECULE
tmp/2nt6A00.pdb
 191 185 0 0 0
SMALL
GASTEIGER

@<TRIPOS>ATOM
      1  N         24.8240   -2.9060  -12.1730 N.3    84  GLY84      -0.1210
      2  CA        24.3600   -2.2300  -10.9640 C.3    84  GLY84       0.1956
      3  C         23.5980   -3.1900  -10.0710 C.2    84  GLY84       0.2613
      4  O         23.2830   -4.3020  -10.4860 O.2    84  GLY84      -0.2717
      5  N         23.2940   -2.7580   -8.8500 N.am   85  THR85      -0.1938
      6  CA        22.6520   -3.6310   -7.8640 C.3    85  THR85       0.2028
      7  C         21.2640   -4.0880   -8.3180 C.2    85  THR85       0.2642
      8  O         21.0130   -5.2910   -8.4150 O.2    85  THR85      -0.2714
      9  CB        22.5930   -2.9740   -6.4690 C.3    85  THR85       0.1808
     10  OG1       23.9270   -2.7150   -6.0170 O.3    85  THR85      -0.2208
     11  CG2       21.9130   -3.9070   -5.4620 C.3    85  THR85       0.0379
     12  N         20.3770   -3.1340   -8.6080 N.am   86  ALA86      -0.1977
     13  CA        19.0530   -3.4750   -9.1210 C.3    86  ALA86       0.1597
     14  C         19.1770   -4.3410  -10.3820 C.2    86  ALA86       0.2287
     15  O         18.5200   -5.3840  -10.5020 O.2    86  ALA86      -0.2864
     16  CB        18.2360   -2.2090   -9.3910 C.3    86  ALA86       0.0319
     17  N         27.6960   -6.6900   -4.8620 N.3   129  GLN129     -0.1245
     18  CA        26.2860   -7.0250   -4.6670 C.3   129  GLN129      0.1566
     19  C         25.8140   -7.8790   -5.8360 C.2   129  GLN129      0.2260
     20  O         26.2060   -7.6520   -6.9810 O.2   129  GLN129     -0.2867
     21  CB        25.3900   -5.7970   -4.4430 C.3   129  GLN129      0.0367
     22  CG        25.7090   -4.5640   -5.2110 C.3   129  GLN129      0.0905
     23  CD        26.8950   -3.7880   -4.6640 C.2   129  GLN129      0.2608
     24  OE1       27.9430   -3.7950   -5.2690 O.2   129  GLN129     -0.2717
     25  NE2       26.7220   -3.1030   -3.5310 N.am  129  GLN129     -0.0878
     26  N         14.4160   -9.4380   -6.5410 N.3   134  TYR134     -0.1241
     27  CA        14.1830   -8.0030   -6.4160 C.3   134  TYR134      0.1605
     28  C         12.7040   -7.7420   -6.6270 C.2   134  TYR134      0.2264
     29  O         12.1630   -8.0700   -7.6720 O.2   134  TYR134     -0.2867
     30  CB        15.0210   -7.2660   -7.4670 C.3   134  TYR134      0.0534
     31  CG        14.8380   -5.7590   -7.6060 C.ar  134  TYR134     -0.0201
     32  CD1       14.4710   -4.9540   -6.5200 C.ar  134  TYR134     -0.0009
     33  CD2       15.0880   -5.1320   -8.8320 C.ar  134  TYR134     -0.0009
     34  CE1       14.3340   -3.5730   -6.6670 C.ar  134  TYR134      0.0417
     35  CE2       14.9610   -3.7610   -8.9800 C.ar  134  TYR134      0.0417
     36  CZ        14.5840   -2.9880   -7.9000 C.ar  134  TYR134      0.1957
     37  OH        14.4540   -1.6230   -8.0540 O.3   134  TYR134     -0.2866
     38  N          9.5900   -1.0550   -7.0100 N.3   137  LYS137     -0.1245
     39  CA         8.5950   -0.0530   -6.6050 C.3   137  LYS137      0.1561
     40  C          7.2040   -0.3470   -7.1600 C.2   137  LYS137      0.2260
     41  O          6.2050    0.1050   -6.5960 O.2   137  LYS137     -0.2867
     42  CB         9.0320    1.3560   -7.0270 C.3   137  LYS137      0.0271
     43  CG        10.3660    1.7930   -6.4540 C.3   137  LYS137      0.0035
     44  CD        10.5830    3.2980   -6.5700 C.3   137  LYS137      0.0206
     45  CE        10.3530    3.9950   -5.2340 C.3   137  LYS137      0.1093
     46  NZ        11.2780    3.4890   -4.1690 N.3   137  LYS137     -0.1314
     47  N         26.2980  -11.0590   -0.9210 N.3   153  GLN153     -0.1231
     48  CA        25.9470   -9.6730   -0.6660 C.3   153  GLN153      0.1698
     49  C         24.6510   -9.3230   -1.3930 C.2   153  GLN153      0.2592
     50  O         24.5260   -9.5760   -2.5980 O.2   153  GLN153     -0.2718
     51  CB        27.0690   -8.7400   -1.1150 C.3   153  GLN153      0.0381
     52  CG        26.8100   -7.2740   -0.7720 C.3   153  GLN153      0.0905
     53  CD        28.0310   -6.4040   -1.0080 C.2   153  GLN153      0.2608
     54  OE1       29.0970   -6.9000   -1.3700 O.2   153  GLN153     -0.2717
     55  NE2       27.8840   -5.1010   -0.7840 N.am  153  GLN153     -0.0878
     56  N         23.6930   -8.7590   -0.6520 N.am  154  ALA154     -0.1980
     57  CA        22.4670   -8.1790   -1.2350 C.3   154  ALA154      0.1597
     58  C         21.5340   -9.2040   -1.8990 C.2   154  ALA154      0.2287
     59  O         20.9190   -8.9390   -2.9420 O.2   154  ALA154     -0.2864
     60  CB        22.8220   -7.0330   -2.2220 C.3   154  ALA154      0.0319
     61  N         16.3330   -7.9280   -2.3730 N.3   157  TYR157     -0.1241
     62  CA        16.0560   -6.5020   -2.5090 C.3   157  TYR157      0.1605
     63  C         14.5430   -6.3350   -2.4920 C.2   157  TYR157      0.2264
     64  O         13.8690   -6.6540   -3.4740 O.2   157  TYR157     -0.2867
     65  CB        16.6190   -6.0110   -3.8490 C.3   157  TYR157      0.0534
     66  CG        16.7370   -4.5020   -4.0410 C.ar  157  TYR157     -0.0201
     67  CD1       16.1250   -3.5910   -3.1770 C.ar  157  TYR157     -0.0009
     68  CD2       17.4600   -3.9980   -5.1200 C.ar  157  TYR157     -0.0009
     69  CE1       16.2490   -2.2070   -3.3830 C.ar  157  TYR157      0.0417
     70  CE2       17.5840   -2.6440   -5.3320 C.ar  157  TYR157      0.0417
     71  CZ        16.9850   -1.7530   -4.4710 C.ar  157  TYR157      0.1957
     72  OH        17.1340   -0.4070   -4.7210 O.3   157  TYR157     -0.2866
     73  N         26.4620   -9.6900    3.5060 N.3   174  VAL174     -0.1231
     74  CA        26.3360   -8.2580    3.7620 C.3   174  VAL174      0.1692
     75  C         25.0070   -7.7430    3.2190 C.2   174  VAL174      0.2592
     76  O         24.7340   -7.8550    2.0180 O.2   174  VAL174     -0.2718
     77  CB        27.5150   -7.4660    3.1280 C.3   174  VAL174      0.0266
     78  CG1       27.2250   -5.9640    3.1120 C.3   174  VAL174      0.0020
     79  CG2       28.8230   -7.7600    3.8690 C.3   174  VAL174      0.0020
     80  N         24.1930   -7.1890    4.1200 N.am  175  ASP175     -0.1974
     81  CA        22.9320   -6.5260    3.7760 C.3   175  ASP175      0.1709
     82  C         22.0440   -7.4300    2.9280 C.2   175  ASP175      0.2293
     83  O         21.5140   -6.9960    1.8940 O.2   175  ASP175     -0.2864
     84  CB        23.1960   -5.1970    3.0330 C.3   175  ASP175      0.1436
     85  CG        24.0740   -4.2290    3.8240 C.2   175  ASP175      0.3671
     86  OD1       24.2140   -4.3810    5.0540 O.co2 175  ASP175     -0.2456
     87  OD2       24.6270   -3.2960    3.1940 O.co2 175  ASP175     -0.2456
     88  N         17.4050   -6.2070    2.1140 N.3   178  PHE178     -0.1241
     89  CA        17.5610   -4.7540    2.1090 C.3   178  PHE178      0.1605
     90  C         16.4910   -4.0640    1.2780 C.2   178  PHE178      0.2264
     91  O         15.8720   -4.6830    0.4180 O.2   178  PHE178     -0.2867
     92  CB        18.9760   -4.3770    1.6410 C.3   178  PHE178      0.0534
     93  CG        19.2120   -4.5670    0.1630 C.ar  178  PHE178     -0.0203
     94  CD1       19.4530   -5.8330   -0.3690 C.ar  178  PHE178     -0.0042
     95  CD2       19.2170   -3.4650   -0.6950 C.ar  178  PHE178     -0.0042
     96  CE1       19.6680   -6.0080   -1.7400 C.ar  178  PHE178     -0.0003
     97  CE2       19.4510   -3.6200   -2.0660 C.ar  178  PHE178     -0.0003
     98  CZ        19.6830   -4.8930   -2.5900 C.ar  178  PHE178     -0.0000
     99  N         19.3950   -4.3900    5.8460 N.3   209  ALA209     -0.1245
    100  CA        19.7640   -2.9940    5.6190 C.3   209  ALA209      0.1562
    101  C         18.5140   -2.2690    5.1150 C.2   209  ALA209      0.2260
    102  O         18.3640   -2.0280    3.9100 O.2   209  ALA209     -0.2867
    103  CB        20.9200   -2.8860    4.6240 C.3   209  ALA209      0.0290
    104  N         21.7340   -2.7100    9.7900 N.3   243  ARG243     -0.1245
    105  CA        22.3630   -1.3880    9.7800 C.3   243  ARG243      0.1563
    106  C         21.5090   -0.4800    8.8810 C.2   243  ARG243      0.2260
    107  O         20.8240   -0.9770    7.9860 O.2   243  ARG243     -0.2867
    108  CB        23.8330   -1.4690    9.3450 C.3   243  ARG243      0.0307
    109  CG        24.0770   -1.9990    7.9370 C.3   243  ARG243      0.0489
    110  CD        25.5710   -2.0380    7.6280 C.3   243  ARG243      0.2205
    111  NE        25.8270   -2.4420    6.2470 N.pl3 243  ARG243     -0.0865
    112  CZ        26.9820   -2.2610    5.6110 C.cat 243  ARG243      0.5346
    113  NH1       28.0090   -1.6900    6.2330 N.pl3 243  ARG243      0.1354
    114  NH2       27.1140   -2.6610    4.3520 N.pl3 243  ARG243      0.1354
    115  N         20.3220    1.6450    6.0210 N.3   245  TRP245     -0.1227
    116  CA        20.6340    2.0420    4.6480 C.3   245  TRP245      0.1737
    117  C         19.8850    3.3100    4.2500 C.2   245  TRP245      0.2595
    118  O         18.6530    3.3250    4.1840 O.2   245  TRP245     -0.2718
    119  CB        20.3630    0.9030    3.6530 C.3   245  TRP245      0.0564
    120  CG        20.7790    1.2240    2.2320 C.ar  245  TRP245      0.0003
    121  CD1       21.8970    1.9070    1.8340 C.ar  245  TRP245      0.0946
    122  CD2       20.0840    0.8620    1.0310 C.ar  245  TRP245      0.0152
    123  NE1       21.9350    2.0020    0.4630 N.ar  245  TRP245     -0.2442
    124  CE2       20.8370    1.3690   -0.0570 C.ar  245  TRP245      0.0810
    125  CE3       18.8960    0.1630    0.7660 C.ar  245  TRP245      0.0012
    126  CZ2       20.4480    1.1910   -1.3890 C.ar  245  TRP245      0.0191
    127  CZ3       18.5040   -0.0100   -0.5640 C.ar  245  TRP245      0.0001
    128  CH2       19.2830    0.5080   -1.6250 C.ar  245  TRP245      0.0015
    129  N         20.6450    4.3770    4.0090 N.am  246  HIS246     -0.1962
    130  CA        20.1000    5.6240    3.4870 C.3   246  HIS246      0.1772
    131  C         20.5720    5.7440    2.0430 C.2   246  HIS246      0.2462
    132  O         21.6810    6.2150    1.8010 O.2   246  HIS246     -0.2730
    133  CB        20.5980    6.8120    4.3250 C.3   246  HIS246      0.0785
    134  CG        20.0520    6.8380    5.7200 C.ar  246  HIS246      0.0821
    135  ND1       19.2300    7.8460    6.1770 N.ar  246  HIS246     -0.2267
    136  CD2       20.2050    5.9770    6.7550 C.ar  246  HIS246      0.1154
    137  CE1       18.9040    7.6070    7.4370 C.ar  246  HIS246      0.1986
    138  NE2       19.4780    6.4750    7.8080 N.ar  246  HIS246     -0.2212
    139  N         19.7530    5.2720    1.0800 N.am  247  PRO247     -0.2716
    140  CA        20.2390    5.1070   -0.2900 C.3   247  PRO247      0.1536
    141  C         20.6170    6.4290   -0.9310 C.2   247  PRO247      0.2599
    142  O         19.9790    7.4520   -0.6700 O.2   247  PRO247     -0.2715
    143  CB        19.0350    4.5090   -1.0300 C.3   247  PRO247      0.0310
    144  CG        18.1870    3.9150    0.0290 C.3   247  PRO247      0.0237
    145  CD        18.3440    4.8550    1.1980 C.3   247  PRO247      0.0939
    146  N         21.6610    6.3980   -1.7520 N.am  248  THR248     -0.1937
    147  CA        22.0020    7.5570   -2.5720 C.3   248  THR248      0.2028
    148  C         20.7910    7.8420   -3.4520 C.2   248  THR248      0.2643
    149  O         20.3050    6.9570   -4.1650 O.2   248  THR248     -0.2714
    150  CB        23.2470    7.2910   -3.4160 C.3   248  THR248      0.1808
    151  OG1       24.3470    6.9970   -2.5460 O.3   248  THR248     -0.2208
    152  CG2       23.5910    8.5060   -4.2850 C.3   248  THR248      0.0379
    153  N         20.3000    9.0750   -3.3720 N.am  249  THR249     -0.1936
    154  CA        19.0320    9.4670   -3.9790 C.3   249  THR249      0.2028
    155  C         19.1840   10.8410   -4.6280 C.2   249  THR249      0.2642
    156  O         19.8700   11.7060   -4.0900 O.2   249  THR249     -0.2714
    157  CB        17.9100    9.4740   -2.9080 C.3   249  THR249      0.1808
    158  OG1       17.7880    8.1580   -2.3470 O.3   249  THR249     -0.2208
    159  CG2       16.5560    9.8820   -3.4890 C.3   249  THR249      0.0379
    160  N         18.5690   11.0200   -5.7970 N.am  250  THR250     -0.1950
    161  CA        18.5970   12.3110   -6.4900 C.3   250  THR250      0.1897
    162  C         17.5150   13.2420   -5.9550 C.2   250  THR250      0.2313
    163  O         16.3170   12.9440   -6.0420 O.2   250  THR250     -0.2863
    164  CB        18.4710   12.1450   -8.0270 C.3   250  THR250      0.1794
    165  OG1       19.5970   11.4040   -8.5170 O.3   250  THR250     -0.2208
    166  CG2       18.4400   13.5160   -8.7290 C.3   250  THR250      0.0378
    167  N         22.6640   14.7210   -5.3930 N.3   255  ARG255     -0.1245
    168  CA        22.5330   13.2870   -5.2090 C.3   255  ARG255      0.1563
    169  C         23.3390   12.8360   -3.9880 C.2   255  ARG255      0.2260
    170  O         24.5640   12.9630   -3.9680 O.2   255  ARG255     -0.2867
    171  CB        22.9950   12.5790   -6.4820 C.3   255  ARG255      0.0307
    172  CG        22.7920   11.0970   -6.4530 C.3   255  ARG255      0.0489
    173  CD        22.9040   10.4940   -7.8360 C.3   255  ARG255      0.2205
    174  NE        22.8830    9.0380   -7.7460 N.pl3 255  ARG255     -0.0865
    175  CZ        21.7810    8.3010   -7.6210 C.cat 255  ARG255      0.5346
    176  NH1       20.5770    8.8670   -7.5830 N.pl3 255  ARG255      0.1354
    177  NH2       21.8870    6.9820   -7.5330 N.pl3 255  ARG255      0.1354
    178  N         25.9130    2.5380    9.6510 N.3   282  MET282     -0.1230
    179  CA        26.2290    2.4750    8.2310 C.3   282  MET282      0.1702
    180  C         26.5390    3.8740    7.7290 C.2   282  MET282      0.2593
    181  O         25.9400    4.8450    8.1930 O.2   282  MET282     -0.2718
    182  CB        25.0550    1.8790    7.4520 C.3   282  MET282      0.0401
    183  CG        25.3780    1.4870    6.0180 C.3   282  MET282      0.0596
    184  SD        23.9560    0.7280    5.2020 S.3   282  MET282     -0.1393
    185  CE        24.7130    0.2120    3.6660 C.3   282  MET282      0.0692
    186  N         27.4780    3.9680    6.7910 N.am  283  SER283     -0.1952
    187  CA        27.8870    5.2640    6.2530 C.3   283  SER283      0.1924
    188  C         27.2970    5.5290    4.8730 C.2   283  SER283      0.2314
    189  O         26.9560    4.6030    4.1280 O.2   283  SER283     -0.2863
    190  CB        29.4160    5.3850    6.2070 C.3   283  SER283      0.2116
    191  OG        29.9640    4.5970    5.1610 O.3   283  SER283     -0.2180
@<TRIPOS>BOND
     1     1     2    1
     2     2     3    1
     3    15    14    2
     4     4     3    2
     5    14    13    1
     6     3     5   am
     7    16    13    1
     8    13    12    1
     9    35    33   ar
    10    35    36   ar
    11     5     6    1
    12    33    31   ar
    13   166   164    1
    14    12     7   am
    15   165   164    1
    16     8     7    2
    17     7     6    1
    18    37    36    1
    19   164   161    1
    20    36    34   ar
    21     6     9    1
    22   173   174    1
    23   173   172    1
    24   174   175    2
    25    29    28    2
    26   175   176    1
    27   175   177    1
    28    31    30    1
    29    31    32   ar
    30    30    27    1
    31    40    39    1
    32    40    41    2
    33    42    39    1
    34    42    43    1
    35    38    39    1
    36    20    19    2
    37    34    32   ar
    38    28    27    1
    39    44    43    1
    40    44    45    1
    41    26    27    1
    42   161   162    1
    43   161   160    1
    44   171   172    1
    45   171   168    1
    46     9    10    1
    47     9    11    1
    48   163   162    2
    49    19    18    1
    50   160   155   am
    51   167   168    1
    52    70    68   ar
    53    70    71   ar
    54    24    23    2
    55    45    46    1
    56    22    23    1
    57    22    21    1
    58   168   169    1
    59    68    66   ar
    60    17    18    1
    61    72    71    1
    62    18    21    1
    63    23    25   am
    64   155   156    2
    65   155   154    1
    66    71    69   ar
    67   152   150    1
    68   149   148    2
    69    66    65    1
    70    66    67   ar
    71   169   170    2
    72   154   153    1
    73   154   157    1
    74    65    62    1
    75   159   157    1
    76    64    63    2
    77   148   153   am
    78   148   147    1
    79   150   147    1
    80   150   151    1
    81    69    67   ar
    82    59    58    2
    83   157   158    1
    84    50    49    2
    85    98    97   ar
    86    98    96   ar
    87   147   146    1
    88    62    63    1
    89    62    61    1
    90    60    57    1
    91    97    95   ar
    92    58    57    1
    93   146   141   am
    94    96    94   ar
    95   128   126   ar
    96   128   127   ar
    97    49    48    1
    98    49    56   am
    99   126   124   ar
   100    54    53    2
   101    57    56    1
   102    51    52    1
   103    51    48    1
   104   143   140    1
   105   143   144    1
   106    53    55   am
   107    53    52    1
   108   141   142    2
   109   141   140    1
   110    47    48    1
   111    95    93   ar
   112   127   125   ar
   113    94    93   ar
   114   140   139    1
   115   124   123   ar
   116   124   122   ar
   117   144   145    1
   118    93    92    1
   119    91    90    2
   120   123   121   ar
   121   125   122   ar
   122   122   120   ar
   123   139   145    1
   124   139   131   am
   125    90    89    1
   126    92    89    1
   127   132   131    2
   128   121   120   ar
   129    83    82    2
   130    76    75    2
   131   131   130    1
   132    89    88    1
   133   120   119    1
   134    82    81    1
   135    84    81    1
   136    84    85    1
   137    78    77    1
   138    77    74    1
   139    77    79    1
   140    87    85   ar
   141    75    74    1
   142    75    80   am
   143   130   129    1
   144   130   133    1
   145    73    74    1
   146   119   116    1
   147   185   184    1
   148    81    80    1
   149    85    86   ar
   150   102   101    2
   151   129   117   am
   152   189   188    2
   153   118   117    2
   154   117   116    1
   155   133   134    1
   156   114   112    1
   157   103   100    1
   158   116   115    1
   159   188   187    1
   160   101   100    1
   161   191   190    1
   162   184   183    1
   163   112   113    1
   164   112   111    2
   165   100    99    1
   166   134   135   ar
   167   134   136   ar
   168   183   182    1
   169   135   137   ar
   170   190   187    1
   171   111   110    1
   172   187   186    1
   173   136   138   ar
   174   186   180   am
   175   137   138   ar
   176   182   179    1
   177   110   109    1
   178   180   181    2
   179   180   179    1
   180   109   108    1
   181   107   106    2
   182   179   178    1
   183   106   105    1
   184   108   105    1
   185   105   104    1
