@<TRIPOS>MOLECULE
tmp/2nt7A00.pdb
 196 186 0 0 0
SMALL
GASTEIGER

@<TRIPOS>ATOM
      1  N         58.4510    6.0820    6.9070 N.3    23  ARG23      -0.1231
      2  CA        57.4200    5.3690    6.1600 C.3    23  ARG23       0.1694
      3  C         57.7650    3.8890    6.0720 C.2    23  ARG23       0.2592
      4  O         56.8960    3.0290    6.1990 O.2    23  ARG23      -0.2718
      5  CB        57.2790    5.9310    4.7400 C.3    23  ARG23       0.0321
      6  CG        56.5070    7.2390    4.6350 C.3    23  ARG23       0.0489
      7  CD        56.0770    7.5120    3.1940 C.3    23  ARG23       0.2205
      8  NE        55.1900    8.6690    3.1090 N.pl3  23  ARG23      -0.0865
      9  CZ        54.6560    9.1340    1.9820 C.cat  23  ARG23       0.5346
     10  NH1       54.9150    8.5420    0.8220 N.pl3  23  ARG23       0.1354
     11  NH2       53.8570   10.1960    2.0170 N.pl3  23  ARG23       0.1354
     12  N         59.0430    3.5990    5.8520 N.am   24  HIS24      -0.1976
     13  CA        59.5110    2.2240    5.7280 C.3    24  HIS24       0.1656
     14  C         59.4100    1.4220    7.0250 C.2    24  HIS24       0.2291
     15  O         59.1790    0.2170    6.9990 O.2    24  HIS24      -0.2864
     16  CB        60.9600    2.2150    5.2250 C.3    24  HIS24       0.0771
     17  CG        61.5520    0.8440    5.0950 C.ar   24  HIS24       0.0820
     18  ND1       61.8860    0.0690    6.1860 N.ar   24  HIS24      -0.2267
     19  CD2       61.8600    0.1050    4.0020 C.ar   24  HIS24       0.1154
     20  CE1       62.3740   -1.0870    5.7710 C.ar   24  HIS24       0.1986
     21  NE2       62.3680   -1.0900    4.4490 N.ar   24  HIS24      -0.2212
     22  N         57.2360    2.2400    9.5720 N.3    26  ALA26      -0.1231
     23  CA        55.8920    2.3510   10.1360 C.3    26  ALA26       0.1694
     24  C         55.1640    1.0200   10.2890 C.2    26  ALA26       0.2593
     25  O         55.3110    0.1120    9.4650 O.2    26  ALA26      -0.2718
     26  CB        55.0500    3.3130    9.2960 C.3    26  ALA26       0.0304
     27  N         54.3720    0.9260   11.3540 N.am   27  SER27      -0.1938
     28  CA        53.5990   -0.2720   11.6620 C.3    27  SER27       0.2055
     29  C         52.5690   -0.5020   10.5760 C.2    27  SER27       0.2643
     30  O         52.0290    0.4510   10.0300 O.2    27  SER27      -0.2714
     31  CB        52.8720   -0.1050   13.0010 C.3    27  SER27       0.2130
     32  OG        53.7750    0.2000   14.0500 O.3    27  SER27      -0.2179
     33  N         52.2910   -1.7660   10.2760 N.am   28  ASP28      -0.1971
     34  CA        51.3060   -2.1070    9.2590 C.3    28  ASP28       0.1709
     35  C         50.2750   -3.0530    9.8590 C.2    28  ASP28       0.2293
     36  O         50.5230   -4.2510    9.9970 O.2    28  ASP28      -0.2864
     37  CB        51.9940   -2.7530    8.0510 C.3    28  ASP28       0.1436
     38  CG        51.0170   -3.1150    6.9410 C.2    28  ASP28       0.3671
     39  OD1       50.0480   -2.3550    6.7140 O.co2  28  ASP28      -0.2456
     40  OD2       51.2300   -4.1560    6.2810 O.co2  28  ASP28      -0.2456
     41  N         38.8400    9.1140    1.7040 N.3    45  TYR45      -0.1241
     42  CA        39.9480    8.6720    0.8610 C.3    45  TYR45       0.1605
     43  C         40.1230    7.1540    0.9000 C.2    45  TYR45       0.2264
     44  O         40.2210    6.5430    1.9660 O.2    45  TYR45      -0.2867
     45  CB        41.2550    9.3460    1.2950 C.3    45  TYR45       0.0534
     46  CG        41.2390   10.8510    1.1510 C.ar   45  TYR45      -0.0201
     47  CD1       41.3230   11.4550   -0.1030 C.ar   45  TYR45      -0.0009
     48  CD2       41.0950   11.6720    2.2700 C.ar   45  TYR45      -0.0009
     49  CE1       41.2610   12.8480   -0.2390 C.ar   45  TYR45       0.0417
     50  CE2       41.0290   13.0590    2.1470 C.ar   45  TYR45       0.0417
     51  CZ        41.1110   13.6410    0.8950 C.ar   45  TYR45       0.1957
     52  OH        41.0310   15.0120    0.7790 O.3    45  TYR45      -0.2866
     53  N         42.6660    5.3740    0.2010 N.3    47  ASP47      -0.1225
     54  CA        43.9220    4.9380    0.7990 C.3    47  ASP47       0.1805
     55  C         44.2530    5.4780    2.1900 C.2    47  ASP47       0.2597
     56  O         45.4220    5.5420    2.5780 O.2    47  ASP47      -0.2718
     57  CB        45.0880    5.2360   -0.1520 C.3    47  ASP47       0.1424
     58  CG        44.9180    4.5700   -1.5130 C.2    47  ASP47       0.3668
     59  OD1       44.2730    3.5020   -1.5830 O.co2  47  ASP47      -0.2456
     60  OD2       45.4410    5.1060   -2.5110 O.co2  47  ASP47      -0.2456
     61  N         43.2300    5.8810    2.9340 N.am   48  VAL48      -0.1980
     62  CA        43.4410    6.3680    4.2910 C.3    48  VAL48       0.1595
     63  C         42.3460    5.7580    5.1420 C.2    48  VAL48       0.2287
     64  O         41.1860    6.1850    5.0950 O.2    48  VAL48      -0.2864
     65  CB        43.3680    7.8970    4.3750 C.3    48  VAL48       0.0276
     66  CG1       43.5810    8.3470    5.8260 C.3    48  VAL48       0.0022
     67  CG2       44.4200    8.5100    3.4710 C.3    48  VAL48       0.0022
     68  N         43.1290    1.6950   11.5110 N.3    51  PHE51      -0.1241
     69  CA        43.4310    0.2980   11.8160 C.3    51  PHE51       0.1605
     70  C         42.2720   -0.2260   12.6530 C.2    51  PHE51       0.2264
     71  O         41.6490    0.5370   13.4010 O.2    51  PHE51      -0.2867
     72  CB        44.7130    0.1740   12.6430 C.3    51  PHE51       0.0534
     73  CG        45.9440    0.6660   11.9450 C.ar   51  PHE51      -0.0203
     74  CD1       46.2050    0.3000   10.6290 C.ar   51  PHE51      -0.0042
     75  CD2       46.8780    1.4460   12.6260 C.ar   51  PHE51      -0.0042
     76  CE1       47.3800    0.6990   10.0000 C.ar   51  PHE51      -0.0003
     77  CE2       48.0560    1.8500   12.0070 C.ar   51  PHE51      -0.0003
     78  CZ        48.3090    1.4770   10.6940 C.ar   51  PHE51      -0.0000
     79  N         39.2930   23.8760   -0.3150 N.3   114  GLU114     -0.1245
     80  CA        40.7070   24.1440   -0.5440 C.3   114  GLU114      0.1567
     81  C         40.9820   23.7540   -1.9900 C.2   114  GLU114      0.2260
     82  O         40.5290   22.7020   -2.4510 O.2   114  GLU114     -0.2867
     83  CB        41.5960   23.3120    0.3940 C.3   114  GLU114      0.0388
     84  CG        41.3240   23.5240    1.8800 C.3   114  GLU114      0.1160
     85  CD        42.3530   22.8470    2.7860 C.2   114  GLU114      0.3649
     86  OE1       42.7000   21.6650    2.5490 O.co2 114  GLU114     -0.2457
     87  OE2       42.8070   23.4960    3.7470 O.co2 114  GLU114     -0.2457
     88  N         36.9070   19.5970    0.9400 N.3   119  LYS119     -0.1245
     89  CA        37.7320   18.7130    1.7590 C.3   119  LYS119      0.1561
     90  C         37.0910   18.3780    3.0960 C.2   119  LYS119      0.2260
     91  O         37.6490   17.6150    3.8830 O.2   119  LYS119     -0.2867
     92  CB        39.0790   19.3790    2.0310 C.3   119  LYS119      0.0271
     93  CG        39.7450   19.9470    0.7940 C.3   119  LYS119      0.0035
     94  CD        40.1320   18.8480   -0.1640 C.3   119  LYS119      0.0206
     95  CE        40.8540   19.4100   -1.3660 C.3   119  LYS119      0.1093
     96  NZ        41.3260   18.3250   -2.2640 N.3   119  LYS119     -0.1314
     97  N         47.0240   22.3360    2.6080 N.3   180  ASP180     -0.1225
     98  CA        47.0940   20.8840    2.5100 C.3   180  ASP180      0.1805
     99  C         48.4770   20.5330    1.9660 C.2   180  ASP180      0.2597
    100  O         48.9660   21.1880    1.0460 O.2   180  ASP180     -0.2718
    101  CB        46.0050   20.3720    1.5630 C.3   180  ASP180      0.1424
    102  CG        46.0340   21.0650    0.2100 C.2   180  ASP180      0.3668
    103  OD1       46.4270   20.4220   -0.7870 O.co2 180  ASP180     -0.2456
    104  OD2       45.6720   22.2600    0.1450 O.co2 180  ASP180     -0.2456
    105  N         49.1050   19.5110    2.5430 N.am  181  PHE181     -0.1976
    106  CA        50.4390   19.0830    2.1230 C.3   181  PHE181      0.1639
    107  C         51.4640   20.1760    2.4170 C.2   181  PHE181      0.2290
    108  O         52.6070   20.1120    1.9570 O.2   181  PHE181     -0.2864
    109  CB        50.4510   18.7590    0.6240 C.3   181  PHE181      0.0560
    110  CG        49.6630   17.5320    0.2610 C.ar  181  PHE181     -0.0200
    111  CD1       50.1590   16.2610    0.5460 C.ar  181  PHE181     -0.0042
    112  CD2       48.4160   17.6470   -0.3470 C.ar  181  PHE181     -0.0042
    113  CE1       49.4230   15.1240    0.2340 C.ar  181  PHE181     -0.0003
    114  CE2       47.6710   16.5160   -0.6630 C.ar  181  PHE181     -0.0003
    115  CZ        48.1760   15.2520   -0.3710 C.ar  181  PHE181     -0.0000
    116  N         41.7620   17.1130    9.7230 N.3   214  CYS214     -0.1221
    117  CA        42.0810   18.0010    8.6120 C.3   214  CYS214      0.1808
    118  C         41.1970   17.3890    7.5330 C.2   214  CYS214      0.2602
    119  O         40.0070   17.1950    7.7760 O.2   214  CYS214     -0.2717
    120  CB        43.5740   17.9710    8.2380 C.3   214  CYS214      0.0970
    121  SG        44.4310   16.3930    8.3610 S.3   214  CYS214     -0.0800
    122  N         41.7360   17.0690    6.3660 N.am  215  SER215     -0.1938
    123  CA        40.8950   16.4490    5.3540 C.3   215  SER215      0.2055
    124  C         40.9710   14.9240    5.5170 C.2   215  SER215      0.2642
    125  O         39.9540   14.2610    5.7070 O.2   215  SER215     -0.2714
    126  CB        41.3500   16.8530    3.9550 C.3   215  SER215      0.2130
    127  OG        40.3970   16.4300    2.9980 O.3   215  SER215     -0.2179
    128  N         42.1860   14.3820    5.4610 N.am  216  ALA216     -0.1977
    129  CA        42.4080   12.9440    5.6080 C.3   216  ALA216      0.1597
    130  C         42.5900   12.5220    7.0690 C.2   216  ALA216      0.2287
    131  O         42.3880   11.3570    7.4220 O.2   216  ALA216     -0.2864
    132  CB        43.6340   12.5250    4.8000 C.3   216  ALA216      0.0319
    133  N         45.5530   12.7960    8.8120 N.3   218  ILE218     -0.1231
    134  CA        46.8790   12.2280    9.0680 C.3   218  ILE218      0.1692
    135  C         48.0470   13.1760    8.8110 C.2   218  ILE218      0.2593
    136  O         49.0460   13.1280    9.5280 O.2   218  ILE218     -0.2718
    137  CB        47.1260   10.9430    8.2350 C.3   218  ILE218      0.0266
    138  CG1       47.0610   11.2640    6.7420 C.3   218  ILE218      0.0019
    139  CG2       46.0890    9.8900    8.5700 C.3   218  ILE218      0.0020
    140  CD1       47.3740   10.0720    5.8470 C.3   218  ILE218      0.0001
    141  N         47.9280   14.0290    7.7930 N.am  219  GLY219     -0.1942
    142  CA        49.0080   14.9520    7.4720 C.3   219  GLY219      0.2014
    143  C         49.1480   16.0810    8.4750 C.2   219  GLY219      0.2638
    144  O         49.9760   16.0270    9.3900 O.2   219  GLY219     -0.2714
    145  N         48.3420   17.1210    8.2910 N.am  220  ARG220     -0.1977
    146  CA        48.3550   18.2590    9.1980 C.3   220  ARG220      0.1597
    147  C         47.9790   17.7970   10.6110 C.2   220  ARG220      0.2287
    148  O         48.5640   18.2490   11.5930 O.2   220  ARG220     -0.2864
    149  CB        47.3810   19.3330    8.6910 C.3   220  ARG220      0.0334
    150  CG        47.8860   20.0440    7.4330 C.3   220  ARG220      0.0492
    151  CD        46.8200   20.9080    6.7680 C.3   220  ARG220      0.2205
    152  NE        45.8440   20.1060    6.0300 N.pl3 220  ARG220     -0.0865
    153  CZ        44.8650   20.6150    5.2830 C.cat 220  ARG220      0.5346
    154  NH1       44.7180   21.9310    5.1670 N.pl3 220  ARG220      0.1354
    155  NH2       44.0310   19.8020    4.6440 N.pl3 220  ARG220      0.1354
    156  N         52.2180    6.2550   14.9610 N.3   253  ARG253     -0.1245
    157  CA        51.8070    5.5350   13.7600 C.3   253  ARG253      0.1563
    158  C         51.3360    4.1060   14.0070 C.2   253  ARG253      0.2260
    159  O         50.8700    3.4350   13.0900 O.2   253  ARG253     -0.2867
    160  CB        52.9190    5.5540   12.7110 C.3   253  ARG253      0.0307
    161  CG        52.9740    6.8670   11.9300 C.3   253  ARG253      0.0489
    162  CD        53.8390    6.7410   10.6840 C.3   253  ARG253      0.2205
    163  NE        53.8180    7.9440    9.8510 N.pl3 253  ARG253     -0.0865
    164  CZ        53.9340    7.9240    8.5250 C.cat 253  ARG253      0.5346
    165  NH1       54.0700    6.7620    7.8960 N.pl3 253  ARG253      0.1354
    166  NH2       53.9280    9.0560    7.8270 N.pl3 253  ARG253      0.1354
    167  N         47.6740    5.1820   10.4430 N.3   257  MET257     -0.1230
    168  CA        48.6340    5.2370    9.3390 C.3   257  MET257      0.1702
    169  C         48.9670    6.6350    8.8140 C.2   257  MET257      0.2592
    170  O         48.1990    7.5810    8.9790 O.2   257  MET257     -0.2718
    171  CB        48.1140    4.4040    8.1580 C.3   257  MET257      0.0401
    172  CG        46.7820    4.9130    7.5960 C.3   257  MET257      0.0596
    173  SD        46.2900    4.1880    6.0080 S.3   257  MET257     -0.1393
    174  CE        45.9710    2.4590    6.5010 C.3   257  MET257      0.0692
    175  N         50.1300    6.7260    8.1720 N.am  258  GLY258     -0.1957
    176  CA        50.6070    7.9500    7.5450 C.3   258  GLY258      0.1869
    177  C         50.6820    9.2790    8.2770 C.2   258  GLY258      0.2309
    178  O         50.6740   10.3250    7.6250 O.2   258  GLY258     -0.2863
    179  N         52.6380   13.7470    6.3690 N.3   261  GLN261     -0.1245
    180  CA        52.7090   13.3840    4.9570 C.3   261  GLN261      0.1566
    181  C         53.9010   13.7590    4.1160 C.2   261  GLN261      0.2260
    182  O         54.1870   13.0860    3.1300 O.2   261  GLN261     -0.2867
    183  CB        51.4930   13.9350    4.2440 C.3   261  GLN261      0.0367
    184  CG        50.4950   12.8990    3.9640 C.3   261  GLN261      0.0905
    185  CD        50.8030   12.0660    2.7340 C.2   261  GLN261      0.2608
    186  OE1       50.3240   10.9430    2.6110 O.2   261  GLN261     -0.2717
    187  NE2       51.5780   12.6230    1.8060 N.am  261  GLN261     -0.0878
    188  N         56.7510   18.6510    6.5100 N.3   265  GLN265     -0.1245
    189  CA        55.8760   18.6860    7.6820 C.3   265  GLN265      0.1566
    190  C         56.6410   18.0970    8.8630 C.2   265  GLN265      0.2260
    191  O         56.4770   18.5390   10.0000 O.2   265  GLN265     -0.2867
    192  CB        54.5860   17.8890    7.4440 C.3   265  GLN265      0.0367
    193  CG        53.6230   18.5530    6.4720 C.3   265  GLN265      0.0905
    194  CD        52.3460   17.7580    6.2810 C.2   265  GLN265      0.2608
    195  OE1       52.3360   16.5330    6.4230 O.2   265  GLN265     -0.2717
    196  NE2       51.2640   18.4480    5.9360 N.am  265  GLN265     -0.0878
@<TRIPOS>BOND
     1    60    58   ar
     2    82    81    2
     3    96    95    1
     4    81    80    1
     5    59    58   ar
     6    58    57    1
     7    95    94    1
     8   103   102   ar
     9   114   115   ar
    10   114   112   ar
    11    80    79    1
    12    80    83    1
    13   115   113   ar
    14   112   110   ar
    15    49    47   ar
    16    49    51   ar
    17    94    93    1
    18    57    54    1
    19    47    46   ar
    20   104   102   ar
    21    53    54    1
    22   102   101    1
    23   113   111   ar
    24   110   111   ar
    25   110   109    1
    26    83    84    1
    27   109   106    1
    28    52    51    1
    29    93    92    1
    30    54    55    1
    31    10     9    1
    32    42    43    1
    33    42    45    1
    34    42    41    1
    35    51    50   ar
    36    43    44    2
    37    88    89    1
    38   100    99    2
    39    46    45    1
    40    46    48   ar
    41   101    98    1
    42    89    92    1
    43    89    90    1
    44   187   185   am
    45    84    85    1
    46   108   107    2
    47    99    98    1
    48    99   105   am
    49     9    11    1
    50     9     8    2
    51   106   107    1
    52   106   105    1
    53    50    48   ar
    54    55    56    2
    55    55    61   am
    56    98    97    1
    57    86    85   ar
    58   186   185    2
    59   185   184    1
    60    85    87   ar
    61    61    62    1
    62   127   126    1
    63    90    91    2
    64     8     7    1
    65   182   181    2
    66     7     6    1
    67    67    65    1
    68   126   123    1
    69   184   183    1
    70    19    21   ar
    71    19    17   ar
    72   181   180    1
    73   183   180    1
    74    62    65    1
    75    62    63    1
    76    65    66    1
    77    21    20   ar
    78     6     5    1
    79   155   153    1
    80     5     2    1
    81   132   129    1
    82   180   179    1
    83    64    63    2
    84    17    16    1
    85    17    18   ar
    86   154   153    1
    87    16    13    1
    88   153   152    2
    89   123   124    1
    90   123   122    1
    91   128   124   am
    92   128   129    1
    93   124   125    2
    94   129   130    1
    95    13    12    1
    96    13    14    1
    97    20    18   ar
    98   140   138    1
    99    12     3   am
   100   196   194   am
   101   173   174    1
   102   173   172    1
   103   152   151    1
   104     3     2    1
   105     3     4    2
   106     2     1    1
   107   194   195    2
   108   194   193    1
   109    40    38   ar
   110   122   118   am
   111   193   192    1
   112   188   189    1
   113    39    38   ar
   114   138   137    1
   115   151   150    1
   116    38    37    1
   117    15    14    2
   118   130   131    2
   119   150   149    1
   120   192   189    1
   121   142   141    1
   122   142   143    1
   123   118   119    2
   124   118   117    1
   125   176   175    1
   126   176   177    1
   127   172   171    1
   128   178   177    2
   129   189   190    1
   130   141   135   am
   131   166   164    1
   132   165   164    1
   133    37    34    1
   134   171   168    1
   135   175   169   am
   136   137   139    1
   137   137   134    1
   138   120   121    1
   139   120   117    1
   140   145   143   am
   141   145   146    1
   142   143   144    2
   143   164   163    2
   144   117   116    1
   145   149   146    1
   146   135   134    1
   147   135   136    2
   148   133   134    1
   149   169   170    2
   150   169   168    1
   151   190   191    2
   152   146   147    1
   153    34    35    1
   154    34    33    1
   155    26    23    1
   156   168   167    1
   157    25    24    2
   158    22    23    1
   159   163   162    1
   160    35    36    2
   161    76    74   ar
   162    76    78   ar
   163    30    29    2
   164    23    24    1
   165    33    29   am
   166    24    27   am
   167    29    28    1
   168   147   148    2
   169    74    73   ar
   170   162   161    1
   171    78    77   ar
   172    27    28    1
   173    68    69    1
   174    28    31    1
   175    69    72    1
   176    69    70    1
   177   161   160    1
   178    73    75   ar
   179    73    72    1
   180    77    75   ar
   181    70    71    2
   182   160   157    1
   183    31    32    1
   184   159   158    2
   185   157   158    1
   186   157   156    1
