@<TRIPOS>MOLECULE
tmp/2ntaA00.pdb
 124 119 0 0 0
SMALL
GASTEIGER

@<TRIPOS>ATOM
      1  N         32.6660  -38.4850   -1.7860 N.3    45  TYR45      -0.1227
      2  CA        31.7290  -37.7610   -0.9360 C.3    45  TYR45       0.1736
      3  C         30.3170  -38.3340   -0.9990 C.2    45  TYR45       0.2595
      4  O         29.7280  -38.4750   -2.0690 O.2    45  TYR45      -0.2718
      5  CB        31.7020  -36.2850   -1.3330 C.3    45  TYR45       0.0548
      6  CG        33.0490  -35.5980   -1.2210 C.ar   45  TYR45      -0.0200
      7  CD1       33.6910  -35.4670    0.0150 C.ar   45  TYR45      -0.0009
      8  CD2       33.6770  -35.0640   -2.3480 C.ar   45  TYR45      -0.0009
      9  CE1       34.9270  -34.8120    0.1260 C.ar   45  TYR45       0.0417
     10  CE2       34.9120  -34.4120   -2.2510 C.ar   45  TYR45       0.0417
     11  CZ        35.5310  -34.2880   -1.0130 C.ar   45  TYR45       0.1957
     12  OH        36.7440  -33.6340   -0.9160 O.3    45  TYR45      -0.2866
     13  N         29.7780  -38.6500    0.1710 N.am   46  ARG46      -0.1966
     14  CA        28.4420  -39.2120    0.2930 C.3    46  ARG46       0.1729
     15  C         27.3750  -38.3670   -0.4030 C.2    46  ARG46       0.2616
     16  O         26.4920  -38.9050   -1.0540 O.2    46  ARG46      -0.2715
     17  CB        28.0870  -39.3500    1.7780 C.3    46  ARG46       0.0348
     18  CG        26.7430  -39.9910    2.0560 C.3    46  ARG46       0.0492
     19  CD        26.3320  -39.7470    3.5000 C.3    46  ARG46       0.2205
     20  NE        26.1300  -38.3210    3.7520 N.pl3  46  ARG46      -0.0865
     21  CZ        25.8540  -37.8010    4.9440 C.cat  46  ARG46       0.5346
     22  NH1       25.7470  -38.5890    6.0050 N.pl3  46  ARG46       0.1354
     23  NH2       25.6820  -36.4920    5.0740 N.pl3  46  ARG46       0.1354
     24  N         27.4710  -37.0460   -0.2800 N.am   47  ASP47      -0.1957
     25  CA        26.4760  -36.1590   -0.8670 C.3    47  ASP47       0.1840
     26  C         26.7710  -35.5790   -2.2420 C.2    47  ASP47       0.2621
     27  O         26.1990  -34.5620   -2.6220 O.2    47  ASP47      -0.2715
     28  CB        26.1640  -35.0220    0.1090 C.3    47  ASP47       0.1450
     29  CG        25.7310  -35.5370    1.4710 C.2    47  ASP47       0.3671
     30  OD1       25.1440  -36.6410    1.5280 O.co2  47  ASP47      -0.2456
     31  OD2       25.9690  -34.8410    2.4780 O.co2  47  ASP47      -0.2456
     32  N         27.6690  -36.2150   -2.9820 N.am   48  VAL48      -0.1977
     33  CA        27.9870  -35.7670   -4.3310 C.3    48  VAL48       0.1596
     34  C         28.0440  -37.0080   -5.2020 C.2    48  VAL48       0.2287
     35  O         29.0150  -37.7790   -5.1660 O.2    48  VAL48      -0.2864
     36  CB        29.3260  -35.0140   -4.3940 C.3    48  VAL48       0.0276
     37  CG1       29.6350  -34.6260   -5.8420 C.3    48  VAL48       0.0022
     38  CG2       29.2530  -33.7640   -3.5270 C.3    48  VAL48       0.0022
     39  N         42.6050  -34.6440   -0.9790 N.3   119  LYS119     -0.1245
     40  CA        41.4450  -34.4000   -1.8200 C.3   119  LYS119      0.1561
     41  C         41.4730  -35.1420   -3.1500 C.2   119  LYS119      0.2260
     42  O         40.5330  -35.0370   -3.9260 O.2   119  LYS119     -0.2867
     43  CB        41.3420  -32.9030   -2.1040 C.3   119  LYS119      0.0271
     44  CG        41.4340  -32.0370   -0.8710 C.3   119  LYS119      0.0035
     45  CD        40.2950  -32.3170    0.0840 C.3   119  LYS119      0.0206
     46  CE        40.3750  -31.3980    1.2810 C.3   119  LYS119      0.1093
     47  NZ        39.2130  -31.5800    2.1780 N.3   119  LYS119     -0.1314
     48  N         40.1030  -24.5340   -2.5630 N.3   180  ASP180     -0.1225
     49  CA        38.8610  -25.2860   -2.4610 C.3   180  ASP180      0.1805
     50  C         37.7730  -24.3170   -1.9970 C.2   180  ASP180      0.2597
     51  O         37.9820  -23.5570   -1.0520 O.2   180  ASP180     -0.2718
     52  CB        39.0440  -26.4250   -1.4580 C.3   180  ASP180      0.1424
     53  CG        37.8550  -27.3520   -1.4020 C.2   180  ASP180      0.3668
     54  OD1       37.2900  -27.6550   -2.4720 O.co2 180  ASP180     -0.2456
     55  OD2       37.4990  -27.7900   -0.2900 O.co2 180  ASP180     -0.2456
     56  N         36.6250  -24.3350   -2.6720 N.am  181  PHE181     -0.1976
     57  CA        35.5170  -23.4350   -2.3460 C.3   181  PHE181      0.1639
     58  C         35.9180  -21.9880   -2.6040 C.2   181  PHE181      0.2290
     59  O         35.2440  -21.0570   -2.1570 O.2   181  PHE181     -0.2864
     60  CB        35.0980  -23.5920   -0.8800 C.3   181  PHE181      0.0560
     61  CG        34.2280  -24.7870   -0.6230 C.ar  181  PHE181     -0.0200
     62  CD1       32.9130  -24.8150   -1.0750 C.ar  181  PHE181     -0.0042
     63  CD2       34.7270  -25.8900    0.0590 C.ar  181  PHE181     -0.0042
     64  CE1       32.1090  -25.9210   -0.8530 C.ar  181  PHE181     -0.0003
     65  CE2       33.9320  -26.9990    0.2850 C.ar  181  PHE181     -0.0003
     66  CZ        32.6180  -27.0160   -0.1730 C.ar  181  PHE181     -0.0000
     67  N         38.0690  -31.6430   -9.8280 N.3   214  CYS214     -0.1221
     68  CA        38.6740  -30.9240   -8.7160 C.3   214  CYS214      0.1808
     69  C         38.6050  -31.9930   -7.6270 C.2   214  CYS214      0.2602
     70  O         39.0240  -33.1240   -7.8650 O.2   214  CYS214     -0.2717
     71  CB        37.8960  -29.6440   -8.3450 C.3   214  CYS214      0.0970
     72  SG        36.0770  -29.6830   -8.3620 S.3   214  CYS214     -0.0800
     73  N         38.0920  -31.6840   -6.4490 N.am  215  SER215     -0.1938
     74  CA        38.0040  -32.7310   -5.4430 C.3   215  SER215      0.2055
     75  C         36.6560  -33.4570   -5.5930 C.2   215  SER215      0.2642
     76  O         36.6030  -34.6760   -5.7520 O.2   215  SER215     -0.2714
     77  CB        38.1270  -32.1420   -4.0440 C.3   215  SER215      0.2130
     78  OG        38.0960  -33.1850   -3.0890 O.3   215  SER215     -0.2179
     79  N         35.5740  -32.6910   -5.5560 N.am  216  ALA216     -0.1977
     80  CA        34.2240  -33.2360   -5.6930 C.3   216  ALA216      0.1597
     81  C         33.7690  -33.2640   -7.1570 C.2   216  ALA216      0.2287
     82  O         32.8510  -34.0080   -7.5280 O.2   216  ALA216     -0.2864
     83  CB        33.2480  -32.3960   -4.8520 C.3   216  ALA216      0.0319
     84  N         32.5370  -30.5650   -8.8620 N.3   218  ILE218     -0.1231
     85  CA        31.3580  -29.7300   -9.0740 C.3   218  ILE218      0.1692
     86  C         31.5810  -28.2310   -8.8580 C.2   218  ILE218      0.2593
     87  O         31.0500  -27.4100   -9.6060 O.2   218  ILE218     -0.2718
     88  CB        30.1710  -30.2080   -8.1920 C.3   218  ILE218      0.0266
     89  CG1       30.5460  -30.1590   -6.7070 C.3   218  ILE218      0.0019
     90  CG2       29.7770  -31.6280   -8.5730 C.3   218  ILE218      0.0020
     91  CD1       29.3840  -30.5250   -5.7880 C.3   218  ILE218      0.0001
     92  N         32.3750  -27.8670   -7.8560 N.am  219  GLY219     -0.1942
     93  CA        32.6110  -26.4550   -7.5970 C.3   219  GLY219      0.2014
     94  C         33.5430  -25.7950   -8.6030 C.2   219  GLY219      0.2638
     95  O         33.1040  -25.0630   -9.4980 O.2   219  GLY219     -0.2714
     96  N         34.8420  -26.0310   -8.4410 N.am  220  ARG220     -0.1977
     97  CA        35.8300  -25.4710   -9.3540 C.3   220  ARG220      0.1597
     98  C         35.6040  -26.0120  -10.7760 C.2   220  ARG220      0.2287
     99  O         35.6890  -25.2670  -11.7520 O.2   220  ARG220     -0.2864
    100  CB        37.2400  -25.7960   -8.8360 C.3   220  ARG220      0.0334
    101  CG        37.5850  -25.0110   -7.5570 C.3   220  ARG220      0.0492
    102  CD        38.8570  -25.4890   -6.8650 C.3   220  ARG220      0.2205
    103  NE        38.6330  -26.6880   -6.0580 N.pl3 220  ARG220     -0.0865
    104  CZ        39.5820  -27.3180   -5.3640 C.cat 220  ARG220      0.5346
    105  NH1       40.8330  -26.8680   -5.3710 N.pl3 220  ARG220      0.1354
    106  NH2       39.2790  -28.4060   -4.6640 N.pl3 220  ARG220      0.1354
    107  N         29.7960  -24.0150   -6.4890 N.3   261  GLN261     -0.1245
    108  CA        29.4660  -24.1990   -5.0930 C.3   261  GLN261      0.1566
    109  C         29.2720  -22.9990   -4.1940 C.2   261  GLN261      0.2260
    110  O         28.7520  -23.1430   -3.0980 O.2   261  GLN261     -0.2867
    111  CB        30.4950  -25.1450   -4.4780 C.3   261  GLN261      0.0367
    112  CG        30.2200  -26.5960   -4.7940 C.3   261  GLN261      0.0905
    113  CD        28.9960  -27.1290   -4.0650 C.2   261  GLN261      0.2608
    114  OE1       28.9970  -27.2590   -2.8380 O.2   261  GLN261     -0.2717
    115  NE2       27.9470  -27.4420   -4.8190 N.am  261  GLN261     -0.0878
    116  N         31.9600  -17.9940   -6.6220 N.3   265  GLN265     -0.1245
    117  CA        32.3850  -18.7250   -7.8110 C.3   265  GLN265      0.1566
    118  C         31.4680  -18.3380   -8.9720 C.2   265  GLN265      0.2260
    119  O         31.9090  -18.2050  -10.1020 O.2   265  GLN265     -0.2867
    120  CB        32.3540  -20.2350   -7.5840 C.3   265  GLN265      0.0367
    121  CG        33.4440  -20.7260   -6.6250 C.3   265  GLN265      0.0905
    122  CD        33.4490  -22.2290   -6.4570 C.2   265  GLN265      0.2608
    123  OE1       32.4760  -22.9050   -6.7930 O.2   265  GLN265     -0.2717
    124  NE2       34.5440  -22.7620   -5.9210 N.am  265  GLN265     -0.0878
@<TRIPOS>BOND
     1    99    98    2
     2    98    97    1
     3   119   118    2
     4    67    68    1
     5    87    86    2
     6    95    94    2
     7    97   100    1
     8    97    96    1
     9    85    84    1
    10    85    86    1
    11    85    88    1
    12   118   117    1
    13    86    92   am
    14   100   101    1
    15    68    71    1
    16    68    69    1
    17    94    96   am
    18    94    93    1
    19    90    88    1
    20    72    71    1
    21    88    89    1
    22    70    69    2
    23    92    93    1
    24   117   120    1
    25   117   116    1
    26    69    73   am
    27   120   121    1
    28   101   102    1
    29    82    81    2
    30    81    80    1
    31   102   103    1
    32   123   122    2
    33    89    91    1
    34   121   122    1
    35   107   108    1
    36   122   124   am
    37    73    74    1
    38   103   104    2
    39    37    36    1
    40    76    75    2
    41    80    79    1
    42    80    83    1
    43    75    79   am
    44    75    74    1
    45    74    77    1
    46   105   104    1
    47   104   106    1
    48    34    35    2
    49    34    33    1
    50   108   111    1
    51   108   109    1
    52   115   113   am
    53   112   111    1
    54   112   113    1
    55    36    33    1
    56    36    38    1
    57    33    32    1
    58   109   110    2
    59   113   114    2
    60    77    78    1
    61    42    41    2
    62    41    40    1
    63    32    26   am
    64    56    57    1
    65    56    50   am
    66    27    26    2
    67    58    57    1
    68    58    59    2
    69    48    49    1
    70    54    53   ar
    71    49    50    1
    72    49    52    1
    73     8    10   ar
    74     8     6   ar
    75    57    60    1
    76    10    11   ar
    77    26    25    1
    78    43    40    1
    79    43    44    1
    80     4     3    2
    81    50    51    2
    82    40    39    1
    83     1     2    1
    84    52    53    1
    85    53    55   ar
    86     5     6    1
    87     5     2    1
    88     6     7   ar
    89    62    64   ar
    90    62    61   ar
    91    16    15    2
    92    11    12    1
    93    11     9   ar
    94     3     2    1
    95     3    13   am
    96    60    61    1
    97    44    45    1
    98    25    24    1
    99    25    28    1
   100    64    66   ar
   101    61    63   ar
   102    15    24   am
   103    15    14    1
   104    66    65   ar
   105     7     9   ar
   106    63    65   ar
   107    45    46    1
   108    28    29    1
   109    13    14    1
   110    14    17    1
   111    46    47    1
   112    29    30   ar
   113    29    31   ar
   114    17    18    1
   115    18    19    1
   116    19    20    1
   117    20    21    2
   118    21    23    1
   119    21    22    1
